MODEL 1
REMARK VINA RESULT:    -5.618      0.000      0.000
REMARK INTER + INTRA:          -6.752
REMARK INTER:                  -6.439
REMARK INTRA:                  -0.313
REMARK UNBOUND:                -0.313
REMARK SMILES NS(=O)(=O)Cc1noc2ccccc12
REMARK SMILES IDX 2 1 3 2 4 3 1 4 5 7 6 8 7 9 14 10 8 11 9 12 13 13 10 14
REMARK SMILES IDX 12 15 11 16
REMARK H PARENT 1 5 1 6
REMARK Flexibility Score: inf
ROOT
ATOM      1  S   UNL     1      -7.021  20.435   6.915  1.00  0.00     0.214 S 
ATOM      2  O   UNL     1      -6.592  20.161   5.394  1.00  0.00    -0.212 OA
ATOM      3  O   UNL     1      -8.251  19.487   7.310  1.00  0.00    -0.212 OA
ENDROOT
BRANCH   1   4
ATOM      4  N   UNL     1      -7.550  22.102   7.046  1.00  0.00    -0.228 NA
ATOM      5  H   UNL     1      -8.158  22.381   7.804  1.00  0.00     0.137 HD
ATOM      6  H   UNL     1      -7.247  22.784   6.365  1.00  0.00     0.137 HD
ENDBRANCH   1   4
BRANCH   1   7
ATOM      7  C   UNL     1      -5.609  20.157   8.049  1.00  0.00     0.214 C 
BRANCH   7   8
ATOM      8  C   UNL     1      -5.754  20.920   9.303  1.00  0.00     0.108 A 
ATOM      9  N   UNL     1      -5.827  22.265   9.362  1.00  0.00    -0.083 NA
ATOM     10  C   UNL     1      -5.824  20.454  10.614  1.00  0.00     0.046 A 
ATOM     11  O   UNL     1      -5.916  22.682  10.600  1.00  0.00    -0.356 OA
ATOM     12  C   UNL     1      -5.905  21.596  11.402  1.00  0.00     0.167 A 
ATOM     13  C   UNL     1      -5.821  19.170  11.191  1.00  0.00     0.014 A 
ATOM     14  C   UNL     1      -5.955  21.515  12.802  1.00  0.00     0.051 A 
ATOM     15  C   UNL     1      -5.875  19.071  12.600  1.00  0.00     0.001 A 
ATOM     16  C   UNL     1      -5.928  20.237  13.401  1.00  0.00     0.004 A 
ENDBRANCH   7   8
ENDBRANCH   1   7
TORSDOF 3
ENDMDL
MODEL 2
REMARK VINA RESULT:    -5.265      1.272      1.295
REMARK INTER + INTRA:          -6.348
REMARK INTER:                  -5.977
REMARK INTRA:                  -0.371
REMARK UNBOUND:                -0.313
REMARK SMILES NS(=O)(=O)Cc1noc2ccccc12
REMARK SMILES IDX 2 1 3 2 4 3 1 4 5 7 6 8 7 9 14 10 8 11 9 12 13 13 10 14
REMARK SMILES IDX 12 15 11 16
REMARK H PARENT 1 5 1 6
REMARK Flexibility Score: inf
ROOT
ATOM      1  S   UNL     1      -6.615  22.160   7.135  1.00  0.00     0.214 S 
ATOM      2  O   UNL     1      -6.125  22.491   5.645  1.00  0.00    -0.212 OA
ATOM      3  O   UNL     1      -7.605  20.899   7.113  1.00  0.00    -0.212 OA
ENDROOT
BRANCH   1   4
ATOM      4  N   UNL     1      -7.505  23.544   7.744  1.00  0.00    -0.228 NA
ATOM      5  H   UNL     1      -8.099  23.446   8.555  1.00  0.00     0.137 HD
ATOM      6  H   UNL     1      -7.423  24.440   7.284  1.00  0.00     0.137 HD
ENDBRANCH   1   4
BRANCH   1   7
ATOM      7  C   UNL     1      -5.185  21.831   8.232  1.00  0.00     0.214 C 
BRANCH   7   8
ATOM      8  C   UNL     1      -5.502  22.108   9.646  1.00  0.00     0.108 A 
ATOM      9  N   UNL     1      -5.674  23.347  10.150  1.00  0.00    -0.083 NA
ATOM     10  C   UNL     1      -5.664  21.217  10.703  1.00  0.00     0.046 A 
ATOM     11  O   UNL     1      -5.910  23.308  11.437  1.00  0.00    -0.356 OA
ATOM     12  C   UNL     1      -5.899  22.012  11.818  1.00  0.00     0.167 A 
ATOM     13  C   UNL     1      -5.627  19.812  10.806  1.00  0.00     0.014 A 
ATOM     14  C   UNL     1      -6.078  21.451  13.092  1.00  0.00     0.051 A 
ATOM     15  C   UNL     1      -5.809  19.232  12.082  1.00  0.00     0.001 A 
ATOM     16  C   UNL     1      -6.019  20.047  13.219  1.00  0.00     0.004 A 
ENDBRANCH   7   8
ENDBRANCH   1   7
TORSDOF 3
ENDMDL
MODEL 3
REMARK VINA RESULT:    -4.942      1.156      1.183
REMARK INTER + INTRA:          -5.977
REMARK INTER:                  -5.600
REMARK INTRA:                  -0.377
REMARK UNBOUND:                -0.313
REMARK SMILES NS(=O)(=O)Cc1noc2ccccc12
REMARK SMILES IDX 2 1 3 2 4 3 1 4 5 7 6 8 7 9 14 10 8 11 9 12 13 13 10 14
REMARK SMILES IDX 12 15 11 16
REMARK H PARENT 1 5 1 6
REMARK Flexibility Score: inf
ROOT
ATOM      1  S   UNL     1      -5.984  21.095   7.643  1.00  0.00     0.214 S 
ATOM      2  O   UNL     1      -5.267  21.282   6.221  1.00  0.00    -0.212 OA
ATOM      3  O   UNL     1      -7.013  19.868   7.574  1.00  0.00    -0.212 OA
ENDROOT
BRANCH   1   4
ATOM      4  N   UNL     1      -6.893  22.553   7.998  1.00  0.00    -0.228 NA
ATOM      5  H   UNL     1      -6.420  23.366   8.368  1.00  0.00     0.137 HD
ATOM      6  H   UNL     1      -7.889  22.581   7.833  1.00  0.00     0.137 HD
ENDBRANCH   1   4
BRANCH   1   7
ATOM      7  C   UNL     1      -4.746  20.818   8.965  1.00  0.00     0.214 C 
BRANCH   7   8
ATOM      8  C   UNL     1      -5.200  21.350  10.263  1.00  0.00     0.108 A 
ATOM      9  N   UNL     1      -5.262  22.665  10.559  1.00  0.00    -0.083 NA
ATOM     10  C   UNL     1      -5.619  20.662  11.399  1.00  0.00     0.046 A 
ATOM     11  O   UNL     1      -5.664  22.857  11.790  1.00  0.00    -0.356 OA
ATOM     12  C   UNL     1      -5.883  21.645  12.345  1.00  0.00     0.167 A 
ATOM     13  C   UNL     1      -5.791  19.297  11.701  1.00  0.00     0.014 A 
ATOM     14  C   UNL     1      -6.299  21.317  13.644  1.00  0.00     0.051 A 
ATOM     15  C   UNL     1      -6.214  18.950  13.005  1.00  0.00     0.001 A 
ATOM     16  C   UNL     1      -6.453  19.953  13.973  1.00  0.00     0.004 A 
ENDBRANCH   7   8
ENDBRANCH   1   7
TORSDOF 3
ENDMDL
MODEL 4
REMARK VINA RESULT:    -4.913     14.947     16.201
REMARK INTER + INTRA:          -5.944
REMARK INTER:                  -5.608
REMARK INTRA:                  -0.336
REMARK UNBOUND:                -0.313
REMARK SMILES NS(=O)(=O)Cc1noc2ccccc12
REMARK SMILES IDX 2 1 3 2 4 3 1 4 5 7 6 8 7 9 14 10 8 11 9 12 13 13 10 14
REMARK SMILES IDX 12 15 11 16
REMARK H PARENT 1 5 1 6
REMARK Flexibility Score: inf
ROOT
ATOM      1  S   UNL     1     -12.514  11.725  18.605  1.00  0.00     0.214 S 
ATOM      2  O   UNL     1     -12.347  12.251  17.099  1.00  0.00    -0.212 OA
ATOM      3  O   UNL     1     -13.214  12.856  19.499  1.00  0.00    -0.212 OA
ENDROOT
BRANCH   1   4
ATOM      4  N   UNL     1     -10.917  11.418  19.262  1.00  0.00    -0.228 NA
ATOM      5  H   UNL     1     -10.816  10.895  20.120  1.00  0.00     0.137 HD
ATOM      6  H   UNL     1     -10.097  11.765  18.783  1.00  0.00     0.137 HD
ENDBRANCH   1   4
BRANCH   1   7
ATOM      7  C   UNL     1     -13.493  10.177  18.648  1.00  0.00     0.214 C 
BRANCH   7   8
ATOM      8  C   UNL     1     -12.821   9.082  17.924  1.00  0.00     0.108 A 
ATOM      9  N   UNL     1     -11.484   8.988  17.775  1.00  0.00    -0.083 NA
ATOM     10  C   UNL     1     -13.378   7.990  17.264  1.00  0.00     0.046 A 
ATOM     11  O   UNL     1     -11.158   7.940  17.061  1.00  0.00    -0.356 OA
ATOM     12  C   UNL     1     -12.300   7.305  16.717  1.00  0.00     0.167 A 
ATOM     13  C   UNL     1     -14.698   7.531  17.085  1.00  0.00     0.014 A 
ATOM     14  C   UNL     1     -12.485   6.152  15.939  1.00  0.00     0.051 A 
ATOM     15  C   UNL     1     -14.900   6.368  16.308  1.00  0.00     0.001 A 
ATOM     16  C   UNL     1     -13.802   5.691  15.727  1.00  0.00     0.004 A 
ENDBRANCH   7   8
ENDBRANCH   1   7
TORSDOF 3
ENDMDL
MODEL 5
REMARK VINA RESULT:    -4.837      2.580      3.236
REMARK INTER + INTRA:          -5.856
REMARK INTER:                  -5.598
REMARK INTRA:                  -0.259
REMARK UNBOUND:                -0.313
REMARK SMILES NS(=O)(=O)Cc1noc2ccccc12
REMARK SMILES IDX 2 1 3 2 4 3 1 4 5 7 6 8 7 9 14 10 8 11 9 12 13 13 10 14
REMARK SMILES IDX 12 15 11 16
REMARK H PARENT 1 5 1 6
REMARK Flexibility Score: inf
ROOT
ATOM      1  S   UNL     1      -5.901  23.951   9.246  1.00  0.00     0.214 S 
ATOM      2  O   UNL     1      -5.455  25.125   8.249  1.00  0.00    -0.212 OA
ATOM      3  O   UNL     1      -6.851  22.916   8.475  1.00  0.00    -0.212 OA
ENDROOT
BRANCH   1   4
ATOM      4  N   UNL     1      -6.820  24.663  10.560  1.00  0.00    -0.228 NA
ATOM      5  H   UNL     1      -6.791  24.248  11.480  1.00  0.00     0.137 HD
ATOM      6  H   UNL     1      -7.378  25.490  10.397  1.00  0.00     0.137 HD
ENDBRANCH   1   4
BRANCH   1   7
ATOM      7  C   UNL     1      -4.438  23.088   9.931  1.00  0.00     0.214 C 
BRANCH   7   8
ATOM      8  C   UNL     1      -4.764  21.718  10.372  1.00  0.00     0.108 A 
ATOM      9  N   UNL     1      -4.576  20.619   9.614  1.00  0.00    -0.083 NA
ATOM     10  C   UNL     1      -5.318  21.289  11.575  1.00  0.00     0.046 A 
ATOM     11  O   UNL     1      -4.983  19.540  10.233  1.00  0.00    -0.356 OA
ATOM     12  C   UNL     1      -5.459  19.913  11.440  1.00  0.00     0.167 A 
ATOM     13  C   UNL     1      -5.711  21.949  12.755  1.00  0.00     0.014 A 
ATOM     14  C   UNL     1      -6.026  19.133  12.460  1.00  0.00     0.051 A 
ATOM     15  C   UNL     1      -6.280  21.176  13.794  1.00  0.00     0.001 A 
ATOM     16  C   UNL     1      -6.449  19.780  13.641  1.00  0.00     0.004 A 
ENDBRANCH   7   8
ENDBRANCH   1   7
TORSDOF 3
ENDMDL
MODEL 6
REMARK VINA RESULT:    -4.737      1.730      2.254
REMARK INTER + INTRA:          -5.743
REMARK INTER:                  -5.512
REMARK INTRA:                  -0.230
REMARK UNBOUND:                -0.313
REMARK SMILES NS(=O)(=O)Cc1noc2ccccc12
REMARK SMILES IDX 2 1 3 2 4 3 1 4 5 7 6 8 7 9 14 10 8 11 9 12 13 13 10 14
REMARK SMILES IDX 12 15 11 16
REMARK H PARENT 1 5 1 6
REMARK Flexibility Score: inf
ROOT
ATOM      1  S   UNL     1      -6.506  20.539   6.265  1.00  0.00     0.214 S 
ATOM      2  O   UNL     1      -6.341  20.954   4.725  1.00  0.00    -0.212 OA
ATOM      3  O   UNL     1      -7.010  19.020   6.366  1.00  0.00    -0.212 OA
ENDROOT
BRANCH   1   4
ATOM      4  N   UNL     1      -7.728  21.570   6.986  1.00  0.00    -0.228 NA
ATOM      5  H   UNL     1      -8.677  21.237   7.085  1.00  0.00     0.137 HD
ATOM      6  H   UNL     1      -7.483  22.498   7.304  1.00  0.00     0.137 HD
ENDBRANCH   1   4
BRANCH   1   7
ATOM      7  C   UNL     1      -4.926  20.750   7.169  1.00  0.00     0.214 C 
BRANCH   7   8
ATOM      8  C   UNL     1      -5.002  20.210   8.539  1.00  0.00     0.108 A 
ATOM      9  N   UNL     1      -4.708  18.935   8.863  1.00  0.00    -0.083 NA
ATOM     10  C   UNL     1      -5.384  20.848   9.717  1.00  0.00     0.046 A 
ATOM     11  O   UNL     1      -4.893  18.714  10.141  1.00  0.00    -0.356 OA
ATOM     12  C   UNL     1      -5.322  19.867  10.699  1.00  0.00     0.167 A 
ATOM     13  C   UNL     1      -5.777  22.164  10.027  1.00  0.00     0.014 A 
ATOM     14  C   UNL     1      -5.678  20.140  12.029  1.00  0.00     0.051 A 
ATOM     15  C   UNL     1      -6.135  22.456  11.363  1.00  0.00     0.001 A 
ATOM     16  C   UNL     1      -6.099  21.447  12.354  1.00  0.00     0.004 A 
ENDBRANCH   7   8
ENDBRANCH   1   7
TORSDOF 3
ENDMDL
MODEL 7
REMARK VINA RESULT:    -4.688      8.945      9.695
REMARK INTER + INTRA:          -5.686
REMARK INTER:                  -5.443
REMARK INTRA:                  -0.243
REMARK UNBOUND:                -0.313
REMARK SMILES NS(=O)(=O)Cc1noc2ccccc12
REMARK SMILES IDX 2 1 3 2 4 3 1 4 5 7 6 8 7 9 14 10 8 11 9 12 13 13 10 14
REMARK SMILES IDX 12 15 11 16
REMARK H PARENT 1 5 1 6
REMARK Flexibility Score: inf
ROOT
ATOM      1  S   UNL     1     -15.132  13.167   9.605  1.00  0.00     0.214 S 
ATOM      2  O   UNL     1     -15.748  11.711   9.339  1.00  0.00    -0.212 OA
ATOM      3  O   UNL     1     -15.987  13.920  10.732  1.00  0.00    -0.212 OA
ENDROOT
BRANCH   1   4
ATOM      4  N   UNL     1     -15.248  14.094   8.120  1.00  0.00    -0.228 NA
ATOM      5  H   UNL     1     -15.616  13.664   7.283  1.00  0.00     0.137 HD
ATOM      6  H   UNL     1     -14.946  15.058   8.101  1.00  0.00     0.137 HD
ENDBRANCH   1   4
BRANCH   1   7
ATOM      7  C   UNL     1     -13.374  13.047  10.107  1.00  0.00     0.214 C 
BRANCH   7   8
ATOM      8  C   UNL     1     -12.942  14.230  10.876  1.00  0.00     0.108 A 
ATOM      9  N   UNL     1     -12.816  14.249  12.219  1.00  0.00    -0.083 NA
ATOM     10  C   UNL     1     -12.609  15.503  10.421  1.00  0.00     0.046 A 
ATOM     11  O   UNL     1     -12.452  15.433  12.645  1.00  0.00    -0.356 OA
ATOM     12  C   UNL     1     -12.326  16.237  11.567  1.00  0.00     0.167 A 
ATOM     13  C   UNL     1     -12.528  16.089   9.143  1.00  0.00     0.014 A 
ATOM     14  C   UNL     1     -11.981  17.596  11.498  1.00  0.00     0.051 A 
ATOM     15  C   UNL     1     -12.177  17.456   9.057  1.00  0.00     0.001 A 
ATOM     16  C   UNL     1     -11.920  18.207  10.228  1.00  0.00     0.004 A 
ENDBRANCH   7   8
ENDBRANCH   1   7
TORSDOF 3
ENDMDL
MODEL 8
REMARK VINA RESULT:    -4.622      7.642      8.799
REMARK INTER + INTRA:          -5.611
REMARK INTER:                  -5.240
REMARK INTRA:                  -0.371
REMARK UNBOUND:                -0.313
REMARK SMILES NS(=O)(=O)Cc1noc2ccccc12
REMARK SMILES IDX 2 1 3 2 4 3 1 4 5 7 6 8 7 9 14 10 8 11 9 12 13 13 10 14
REMARK SMILES IDX 12 15 11 16
REMARK H PARENT 1 5 1 6
REMARK Flexibility Score: inf
ROOT
ATOM      1  S   UNL     1     -10.859  18.546  15.160  1.00  0.00     0.214 S 
ATOM      2  O   UNL     1     -10.517  20.043  15.624  1.00  0.00    -0.212 OA
ATOM      3  O   UNL     1     -11.436  17.712  16.401  1.00  0.00    -0.212 OA
ENDROOT
BRANCH   1   4
ATOM      4  N   UNL     1      -9.373  17.780  14.629  1.00  0.00    -0.228 NA
ATOM      5  H   UNL     1      -8.721  18.289  14.049  1.00  0.00     0.137 HD
ATOM      6  H   UNL     1      -9.168  16.830  14.904  1.00  0.00     0.137 HD
ENDBRANCH   1   4
BRANCH   1   7
ATOM      7  C   UNL     1     -12.062  18.553  13.779  1.00  0.00     0.214 C 
BRANCH   7   8
ATOM      8  C   UNL     1     -11.989  17.315  12.981  1.00  0.00     0.108 A 
ATOM      9  N   UNL     1     -11.802  16.089  13.510  1.00  0.00    -0.083 NA
ATOM     10  C   UNL     1     -12.072  17.150  11.601  1.00  0.00     0.046 A 
ATOM     11  O   UNL     1     -11.741  15.172  12.576  1.00  0.00    -0.356 OA
ATOM     12  C   UNL     1     -11.891  15.789  11.384  1.00  0.00     0.167 A 
ATOM     13  C   UNL     1     -12.280  18.036  10.526  1.00  0.00     0.014 A 
ATOM     14  C   UNL     1     -11.877  15.251  10.088  1.00  0.00     0.051 A 
ATOM     15  C   UNL     1     -12.273  17.508   9.214  1.00  0.00     0.001 A 
ATOM     16  C   UNL     1     -12.058  16.127   8.997  1.00  0.00     0.004 A 
ENDBRANCH   7   8
ENDBRANCH   1   7
TORSDOF 3
ENDMDL
MODEL 9
REMARK VINA RESULT:    -4.552      3.071      4.831
REMARK INTER + INTRA:          -5.530
REMARK INTER:                  -5.345
REMARK INTRA:                  -0.185
REMARK UNBOUND:                -0.313
REMARK SMILES NS(=O)(=O)Cc1noc2ccccc12
REMARK SMILES IDX 2 1 3 2 4 3 1 4 5 7 6 8 7 9 14 10 8 11 9 12 13 13 10 14
REMARK SMILES IDX 12 15 11 16
REMARK H PARENT 1 5 1 6
REMARK Flexibility Score: inf
ROOT
ATOM      1  S   UNL     1      -5.709  23.633  10.178  1.00  0.00     0.214 S 
ATOM      2  O   UNL     1      -4.277  24.056  10.762  1.00  0.00    -0.212 OA
ATOM      3  O   UNL     1      -5.713  23.792   8.583  1.00  0.00    -0.212 OA
ENDROOT
BRANCH   1   4
ATOM      4  N   UNL     1      -6.917  24.720  10.839  1.00  0.00    -0.228 NA
ATOM      5  H   UNL     1      -7.115  24.713  11.830  1.00  0.00     0.137 HD
ATOM      6  H   UNL     1      -7.415  25.354  10.230  1.00  0.00     0.137 HD
ENDBRANCH   1   4
BRANCH   1   7
ATOM      7  C   UNL     1      -6.121  21.912  10.651  1.00  0.00     0.214 C 
BRANCH   7   8
ATOM      8  C   UNL     1      -5.484  20.929   9.755  1.00  0.00     0.108 A 
ATOM      9  N   UNL     1      -4.295  20.344  10.002  1.00  0.00    -0.083 NA
ATOM     10  C   UNL     1      -5.929  20.435   8.531  1.00  0.00     0.046 A 
ATOM     11  O   UNL     1      -3.948  19.541   9.028  1.00  0.00    -0.356 OA
ATOM     12  C   UNL     1      -4.924  19.580   8.095  1.00  0.00     0.167 A 
ATOM     13  C   UNL     1      -7.090  20.644   7.761  1.00  0.00     0.014 A 
ATOM     14  C   UNL     1      -5.012  18.917   6.861  1.00  0.00     0.051 A 
ATOM     15  C   UNL     1      -7.195  19.981   6.518  1.00  0.00     0.001 A 
ATOM     16  C   UNL     1      -6.156  19.134   6.065  1.00  0.00     0.004 A 
ENDBRANCH   7   8
ENDBRANCH   1   7
TORSDOF 3
ENDMDL
MODEL 10
REMARK VINA RESULT:    -4.535      1.892      2.517
REMARK INTER + INTRA:          -5.511
REMARK INTER:                  -5.398
REMARK INTRA:                  -0.113
REMARK UNBOUND:                -0.313
REMARK SMILES NS(=O)(=O)Cc1noc2ccccc12
REMARK SMILES IDX 2 1 3 2 4 3 1 4 5 7 6 8 7 9 14 10 8 11 9 12 13 13 10 14
REMARK SMILES IDX 12 15 11 16
REMARK H PARENT 1 5 1 6
REMARK Flexibility Score: inf
ROOT
ATOM      1  S   UNL     1      -6.321  22.366   7.547  1.00  0.00     0.214 S 
ATOM      2  O   UNL     1      -7.329  21.122   7.626  1.00  0.00    -0.212 OA
ATOM      3  O   UNL     1      -7.085  23.711   7.969  1.00  0.00    -0.212 OA
ENDROOT
BRANCH   1   4
ATOM      4  N   UNL     1      -5.786  22.538   5.886  1.00  0.00    -0.228 NA
ATOM      5  H   UNL     1      -6.430  22.365   5.127  1.00  0.00     0.137 HD
ATOM      6  H   UNL     1      -4.833  22.811   5.687  1.00  0.00     0.137 HD
ENDBRANCH   1   4
BRANCH   1   7
ATOM      7  C   UNL     1      -4.866  22.093   8.626  1.00  0.00     0.214 C 
BRANCH   7   8
ATOM      8  C   UNL     1      -5.051  20.930   9.514  1.00  0.00     0.108 A 
ATOM      9  N   UNL     1      -4.917  19.649   9.115  1.00  0.00    -0.083 NA
ATOM     10  C   UNL     1      -5.400  20.898  10.862  1.00  0.00     0.046 A 
ATOM     11  O   UNL     1      -5.172  18.817  10.093  1.00  0.00    -0.356 OA
ATOM     12  C   UNL     1      -5.485  19.548  11.184  1.00  0.00     0.167 A 
ATOM     13  C   UNL     1      -5.651  21.893  11.826  1.00  0.00     0.014 A 
ATOM     14  C   UNL     1      -5.856  19.126  12.470  1.00  0.00     0.051 A 
ATOM     15  C   UNL     1      -6.021  21.484  13.127  1.00  0.00     0.001 A 
ATOM     16  C   UNL     1      -6.136  20.110  13.443  1.00  0.00     0.004 A 
ENDBRANCH   7   8
ENDBRANCH   1   7
TORSDOF 3
ENDMDL
MODEL 11
REMARK VINA RESULT:    -4.532      9.728     10.504
REMARK INTER + INTRA:          -5.507
REMARK INTER:                  -5.152
REMARK INTRA:                  -0.355
REMARK UNBOUND:                -0.313
REMARK SMILES NS(=O)(=O)Cc1noc2ccccc12
REMARK SMILES IDX 2 1 3 2 4 3 1 4 5 7 6 8 7 9 14 10 8 11 9 12 13 13 10 14
REMARK SMILES IDX 12 15 11 16
REMARK H PARENT 1 5 1 6
REMARK Flexibility Score: inf
ROOT
ATOM      1  S   UNL     1     -15.343  12.672  10.138  1.00  0.00     0.214 S 
ATOM      2  O   UNL     1     -15.936  11.296   9.566  1.00  0.00    -0.212 OA
ATOM      3  O   UNL     1     -14.078  12.369  11.075  1.00  0.00    -0.212 OA
ENDROOT
BRANCH   1   4
ATOM      4  N   UNL     1     -16.579  13.440  11.118  1.00  0.00    -0.228 NA
ATOM      5  H   UNL     1     -17.162  14.163  10.721  1.00  0.00     0.137 HD
ATOM      6  H   UNL     1     -16.708  13.159  12.080  1.00  0.00     0.137 HD
ENDBRANCH   1   4
BRANCH   1   7
ATOM      7  C   UNL     1     -14.871  13.796   8.770  1.00  0.00     0.214 C 
BRANCH   7   8
ATOM      8  C   UNL     1     -14.950  15.213   9.172  1.00  0.00     0.108 A 
ATOM      9  N   UNL     1     -16.104  15.852   9.453  1.00  0.00    -0.083 NA
ATOM     10  C   UNL     1     -13.926  16.144   9.320  1.00  0.00     0.046 A 
ATOM     11  O   UNL     1     -15.890  17.110   9.746  1.00  0.00    -0.356 OA
ATOM     12  C   UNL     1     -14.561  17.333   9.663  1.00  0.00     0.167 A 
ATOM     13  C   UNL     1     -12.525  16.080   9.190  1.00  0.00     0.014 A 
ATOM     14  C   UNL     1     -13.836  18.518   9.861  1.00  0.00     0.051 A 
ATOM     15  C   UNL     1     -11.780  17.264   9.391  1.00  0.00     0.001 A 
ATOM     16  C   UNL     1     -12.433  18.478   9.710  1.00  0.00     0.004 A 
ENDBRANCH   7   8
ENDBRANCH   1   7
TORSDOF 3
ENDMDL
MODEL 12
REMARK VINA RESULT:    -4.410      8.459      9.267
REMARK INTER + INTRA:          -5.367
REMARK INTER:                  -4.990
REMARK INTRA:                  -0.378
REMARK UNBOUND:                -0.313
REMARK SMILES NS(=O)(=O)Cc1noc2ccccc12
REMARK SMILES IDX 2 1 3 2 4 3 1 4 5 7 6 8 7 9 14 10 8 11 9 12 13 13 10 14
REMARK SMILES IDX 12 15 11 16
REMARK H PARENT 1 5 1 6
REMARK Flexibility Score: inf
ROOT
ATOM      1  S   UNL     1     -15.023  13.426   9.651  1.00  0.00     0.214 S 
ATOM      2  O   UNL     1     -15.546  11.937   9.364  1.00  0.00    -0.212 OA
ATOM      3  O   UNL     1     -15.941  14.117  10.768  1.00  0.00    -0.212 OA
ENDROOT
BRANCH   1   4
ATOM      4  N   UNL     1     -15.168  14.356   8.170  1.00  0.00    -0.228 NA
ATOM      5  H   UNL     1     -15.835  14.081   7.464  1.00  0.00     0.137 HD
ATOM      6  H   UNL     1     -14.584  15.168   8.024  1.00  0.00     0.137 HD
ENDBRANCH   1   4
BRANCH   1   7
ATOM      7  C   UNL     1     -13.270  13.408  10.184  1.00  0.00     0.214 C 
BRANCH   7   8
ATOM      8  C   UNL     1     -12.772  14.764  10.481  1.00  0.00     0.108 A 
ATOM      9  N   UNL     1     -12.527  15.699   9.540  1.00  0.00    -0.083 NA
ATOM     10  C   UNL     1     -12.450  15.334  11.710  1.00  0.00     0.046 A 
ATOM     11  O   UNL     1     -12.059  16.799  10.074  1.00  0.00    -0.356 OA
ATOM     12  C   UNL     1     -11.986  16.609  11.409  1.00  0.00     0.167 A 
ATOM     13  C   UNL     1     -12.510  14.877  13.040  1.00  0.00     0.014 A 
ATOM     14  C   UNL     1     -11.530  17.477  12.414  1.00  0.00     0.051 A 
ATOM     15  C   UNL     1     -12.058  15.740  14.064  1.00  0.00     0.001 A 
ATOM     16  C   UNL     1     -11.559  17.027  13.751  1.00  0.00     0.004 A 
ENDBRANCH   7   8
ENDBRANCH   1   7
TORSDOF 3
ENDMDL
MODEL 13
REMARK VINA RESULT:    -4.369      9.702     10.644
REMARK INTER + INTRA:          -5.321
REMARK INTER:                  -4.944
REMARK INTRA:                  -0.377
REMARK UNBOUND:                -0.313
REMARK SMILES NS(=O)(=O)Cc1noc2ccccc12
REMARK SMILES IDX 2 1 3 2 4 3 1 4 5 7 6 8 7 9 14 10 8 11 9 12 13 13 10 14
REMARK SMILES IDX 12 15 11 16
REMARK H PARENT 1 5 1 6
REMARK Flexibility Score: inf
ROOT
ATOM      1  S   UNL     1     -15.886  12.371  11.192  1.00  0.00     0.214 S 
ATOM      2  O   UNL     1     -16.263  11.442   9.940  1.00  0.00    -0.212 OA
ATOM      3  O   UNL     1     -16.216  11.600  12.558  1.00  0.00    -0.212 OA
ENDROOT
BRANCH   1   4
ATOM      4  N   UNL     1     -16.879  13.816  11.125  1.00  0.00    -0.228 NA
ATOM      5  H   UNL     1     -16.947  14.343  10.265  1.00  0.00     0.137 HD
ATOM      6  H   UNL     1     -17.383  14.122  11.945  1.00  0.00     0.137 HD
ENDBRANCH   1   4
BRANCH   1   7
ATOM      7  C   UNL     1     -14.119  12.850  11.138  1.00  0.00     0.214 C 
BRANCH   7   8
ATOM      8  C   UNL     1     -13.894  14.027  10.278  1.00  0.00     0.108 A 
ATOM      9  N   UNL     1     -14.394  14.156   9.033  1.00  0.00    -0.083 NA
ATOM     10  C   UNL     1     -13.153  15.178  10.536  1.00  0.00     0.046 A 
ATOM     11  O   UNL     1     -14.012  15.280   8.481  1.00  0.00    -0.356 OA
ATOM     12  C   UNL     1     -13.235  15.933   9.372  1.00  0.00     0.167 A 
ATOM     13  C   UNL     1     -12.423  15.635  11.650  1.00  0.00     0.014 A 
ATOM     14  C   UNL     1     -12.570  17.162   9.250  1.00  0.00     0.051 A 
ATOM     15  C   UNL     1     -11.750  16.874  11.544  1.00  0.00     0.001 A 
ATOM     16  C   UNL     1     -11.812  17.625  10.347  1.00  0.00     0.004 A 
ENDBRANCH   7   8
ENDBRANCH   1   7
TORSDOF 3
ENDMDL
MODEL 14
REMARK VINA RESULT:    -4.332     10.520     11.584
REMARK INTER + INTRA:          -5.279
REMARK INTER:                  -4.890
REMARK INTRA:                  -0.388
REMARK UNBOUND:                -0.313
REMARK SMILES NS(=O)(=O)Cc1noc2ccccc12
REMARK SMILES IDX 2 1 3 2 4 3 1 4 5 7 6 8 7 9 14 10 8 11 9 12 13 13 10 14
REMARK SMILES IDX 12 15 11 16
REMARK H PARENT 1 5 1 6
REMARK Flexibility Score: inf
ROOT
ATOM      1  S   UNL     1     -13.088  15.790   9.801  1.00  0.00     0.214 S 
ATOM      2  O   UNL     1     -13.655  16.674  11.012  1.00  0.00    -0.212 OA
ATOM      3  O   UNL     1     -11.755  16.461   9.217  1.00  0.00    -0.212 OA
ENDROOT
BRANCH   1   4
ATOM      4  N   UNL     1     -14.292  15.763   8.526  1.00  0.00    -0.228 NA
ATOM      5  H   UNL     1     -14.996  15.038   8.511  1.00  0.00     0.137 HD
ATOM      6  H   UNL     1     -14.283  16.473   7.807  1.00  0.00     0.137 HD
ENDBRANCH   1   4
BRANCH   1   7
ATOM      7  C   UNL     1     -12.752  14.074  10.351  1.00  0.00     0.214 C 
BRANCH   7   8
ATOM      8  C   UNL     1     -13.954  13.224  10.262  1.00  0.00     0.108 A 
ATOM      9  N   UNL     1     -14.457  12.752   9.104  1.00  0.00    -0.083 NA
ATOM     10  C   UNL     1     -14.787  12.768  11.280  1.00  0.00     0.046 A 
ATOM     11  O   UNL     1     -15.547  12.055   9.308  1.00  0.00    -0.356 OA
ATOM     12  C   UNL     1     -15.790  12.052  10.637  1.00  0.00     0.167 A 
ATOM     13  C   UNL     1     -14.776  12.905  12.682  1.00  0.00     0.014 A 
ATOM     14  C   UNL     1     -16.845  11.467  11.353  1.00  0.00     0.051 A 
ATOM     15  C   UNL     1     -15.830  12.317  13.418  1.00  0.00     0.001 A 
ATOM     16  C   UNL     1     -16.865  11.615  12.757  1.00  0.00     0.004 A 
ENDBRANCH   7   8
ENDBRANCH   1   7
TORSDOF 3
ENDMDL
MODEL 15
REMARK VINA RESULT:    -4.303      7.831      8.825
REMARK INTER + INTRA:          -5.245
REMARK INTER:                  -4.887
REMARK INTRA:                  -0.358
REMARK UNBOUND:                -0.313
REMARK SMILES NS(=O)(=O)Cc1noc2ccccc12
REMARK SMILES IDX 2 1 3 2 4 3 1 4 5 7 6 8 7 9 14 10 8 11 9 12 13 13 10 14
REMARK SMILES IDX 12 15 11 16
REMARK H PARENT 1 5 1 6
REMARK Flexibility Score: inf
ROOT
ATOM      1  S   UNL     1     -11.858  17.771  15.382  1.00  0.00     0.214 S 
ATOM      2  O   UNL     1     -12.162  17.118  16.815  1.00  0.00    -0.212 OA
ATOM      3  O   UNL     1     -10.440  17.255  14.840  1.00  0.00    -0.212 OA
ENDROOT
BRANCH   1   4
ATOM      4  N   UNL     1     -11.768  19.512  15.579  1.00  0.00    -0.228 NA
ATOM      5  H   UNL     1     -10.934  20.010  15.299  1.00  0.00     0.137 HD
ATOM      6  H   UNL     1     -12.549  20.018  15.971  1.00  0.00     0.137 HD
ENDBRANCH   1   4
BRANCH   1   7
ATOM      7  C   UNL     1     -13.186  17.366  14.187  1.00  0.00     0.214 C 
BRANCH   7   8
ATOM      8  C   UNL     1     -12.863  17.837  12.827  1.00  0.00     0.108 A 
ATOM      9  N   UNL     1     -12.917  19.129  12.446  1.00  0.00    -0.083 NA
ATOM     10  C   UNL     1     -12.478  17.102  11.709  1.00  0.00     0.046 A 
ATOM     11  O   UNL     1     -12.617  19.263  11.178  1.00  0.00    -0.356 OA
ATOM     12  C   UNL     1     -12.352  18.034  10.686  1.00  0.00     0.167 A 
ATOM     13  C   UNL     1     -12.231  15.734  11.482  1.00  0.00     0.014 A 
ATOM     14  C   UNL     1     -12.006  17.646   9.382  1.00  0.00     0.051 A 
ATOM     15  C   UNL     1     -11.877  15.328  10.175  1.00  0.00     0.001 A 
ATOM     16  C   UNL     1     -11.779  16.276   9.129  1.00  0.00     0.004 A 
ENDBRANCH   7   8
ENDBRANCH   1   7
TORSDOF 3
ENDMDL
MODEL 16
REMARK VINA RESULT:    -4.293      8.843      9.954
REMARK INTER + INTRA:          -5.234
REMARK INTER:                  -4.867
REMARK INTRA:                  -0.367
REMARK UNBOUND:                -0.313
REMARK SMILES NS(=O)(=O)Cc1noc2ccccc12
REMARK SMILES IDX 2 1 3 2 4 3 1 4 5 7 6 8 7 9 14 10 8 11 9 12 13 13 10 14
REMARK SMILES IDX 12 15 11 16
REMARK H PARENT 1 5 1 6
REMARK Flexibility Score: inf
ROOT
ATOM      1  S   UNL     1     -12.312  14.761  14.713  1.00  0.00     0.214 S 
ATOM      2  O   UNL     1     -12.077  16.123  15.525  1.00  0.00    -0.212 OA
ATOM      3  O   UNL     1     -12.562  13.554  15.738  1.00  0.00    -0.212 OA
ENDROOT
BRANCH   1   4
ATOM      4  N   UNL     1     -10.858  14.408  13.796  1.00  0.00    -0.228 NA
ATOM      5  H   UNL     1     -10.018  14.946  13.955  1.00  0.00     0.137 HD
ATOM      6  H   UNL     1     -10.861  13.667  13.109  1.00  0.00     0.137 HD
ENDBRANCH   1   4
BRANCH   1   7
ATOM      7  C   UNL     1     -13.727  14.926  13.561  1.00  0.00     0.214 C 
BRANCH   7   8
ATOM      8  C   UNL     1     -13.294  14.901  12.151  1.00  0.00     0.108 A 
ATOM      9  N   UNL     1     -13.167  13.773  11.423  1.00  0.00    -0.083 NA
ATOM     10  C   UNL     1     -12.928  15.959  11.324  1.00  0.00     0.046 A 
ATOM     11  O   UNL     1     -12.733  14.033  10.216  1.00  0.00    -0.356 OA
ATOM     12  C   UNL     1     -12.562  15.370  10.119  1.00  0.00     0.167 A 
ATOM     13  C   UNL     1     -12.874  17.355  11.496  1.00  0.00     0.014 A 
ATOM     14  C   UNL     1     -12.095  16.138   9.042  1.00  0.00     0.051 A 
ATOM     15  C   UNL     1     -12.410  18.144  10.419  1.00  0.00     0.001 A 
ATOM     16  C   UNL     1     -12.010  17.537   9.205  1.00  0.00     0.004 A 
ENDBRANCH   7   8
ENDBRANCH   1   7
TORSDOF 3
ENDMDL
MODEL 17
REMARK VINA RESULT:    -4.282      8.282      8.787
REMARK INTER + INTRA:          -5.221
REMARK INTER:                  -4.997
REMARK INTRA:                  -0.224
REMARK UNBOUND:                -0.313
REMARK SMILES NS(=O)(=O)Cc1noc2ccccc12
REMARK SMILES IDX 2 1 3 2 4 3 1 4 5 7 6 8 7 9 14 10 8 11 9 12 13 13 10 14
REMARK SMILES IDX 12 15 11 16
REMARK H PARENT 1 5 1 6
REMARK Flexibility Score: inf
ROOT
ATOM      1  S   UNL     1     -14.245  14.400   9.565  1.00  0.00     0.214 S 
ATOM      2  O   UNL     1     -13.656  12.952   9.924  1.00  0.00    -0.212 OA
ATOM      3  O   UNL     1     -15.158  14.927  10.772  1.00  0.00    -0.212 OA
ENDROOT
BRANCH   1   4
ATOM      4  N   UNL     1     -15.255  14.247   8.140  1.00  0.00    -0.228 NA
ATOM      5  H   UNL     1     -15.580  13.337   7.846  1.00  0.00     0.137 HD
ATOM      6  H   UNL     1     -15.513  15.069   7.612  1.00  0.00     0.137 HD
ENDBRANCH   1   4
BRANCH   1   7
ATOM      7  C   UNL     1     -12.891  15.586   9.222  1.00  0.00     0.214 C 
BRANCH   7   8
ATOM      8  C   UNL     1     -12.620  16.460  10.379  1.00  0.00     0.108 A 
ATOM      9  N   UNL     1     -11.890  16.086  11.450  1.00  0.00    -0.083 NA
ATOM     10  C   UNL     1     -13.043  17.765  10.615  1.00  0.00     0.046 A 
ATOM     11  O   UNL     1     -11.837  17.040  12.345  1.00  0.00    -0.356 OA
ATOM     12  C   UNL     1     -12.546  18.088  11.872  1.00  0.00     0.167 A 
ATOM     13  C   UNL     1     -13.802  18.691   9.873  1.00  0.00     0.014 A 
ATOM     14  C   UNL     1     -12.808  19.333  12.464  1.00  0.00     0.051 A 
ATOM     15  C   UNL     1     -14.071  19.951  10.454  1.00  0.00     0.001 A 
ATOM     16  C   UNL     1     -13.589  20.264  11.747  1.00  0.00     0.004 A 
ENDBRANCH   7   8
ENDBRANCH   1   7
TORSDOF 3
ENDMDL
MODEL 18
REMARK VINA RESULT:    -4.265      9.716     10.764
REMARK INTER + INTRA:          -5.201
REMARK INTER:                  -4.870
REMARK INTRA:                  -0.331
REMARK UNBOUND:                -0.313
REMARK SMILES NS(=O)(=O)Cc1noc2ccccc12
REMARK SMILES IDX 2 1 3 2 4 3 1 4 5 7 6 8 7 9 14 10 8 11 9 12 13 13 10 14
REMARK SMILES IDX 12 15 11 16
REMARK H PARENT 1 5 1 6
REMARK Flexibility Score: inf
ROOT
ATOM      1  S   UNL     1     -13.263  17.585   9.813  1.00  0.00     0.214 S 
ATOM      2  O   UNL     1     -13.245  18.925  10.694  1.00  0.00    -0.212 OA
ATOM      3  O   UNL     1     -11.948  17.519   8.899  1.00  0.00    -0.212 OA
ENDROOT
BRANCH   1   4
ATOM      4  N   UNL     1     -14.663  17.640   8.756  1.00  0.00    -0.228 NA
ATOM      5  H   UNL     1     -15.593  17.646   9.150  1.00  0.00     0.137 HD
ATOM      6  H   UNL     1     -14.539  17.665   7.754  1.00  0.00     0.137 HD
ENDBRANCH   1   4
BRANCH   1   7
ATOM      7  C   UNL     1     -13.373  16.104  10.885  1.00  0.00     0.214 C 
BRANCH   7   8
ATOM      8  C   UNL     1     -14.002  14.966  10.187  1.00  0.00     0.108 A 
ATOM      9  N   UNL     1     -14.024  14.825   8.846  1.00  0.00    -0.083 NA
ATOM     10  C   UNL     1     -14.680  13.873  10.719  1.00  0.00     0.046 A 
ATOM     11  O   UNL     1     -14.677  13.747   8.493  1.00  0.00    -0.356 OA
ATOM     12  C   UNL     1     -15.108  13.139   9.619  1.00  0.00     0.167 A 
ATOM     13  C   UNL     1     -14.968  13.451  12.032  1.00  0.00     0.014 A 
ATOM     14  C   UNL     1     -15.868  11.969   9.772  1.00  0.00     0.051 A 
ATOM     15  C   UNL     1     -15.729  12.272  12.202  1.00  0.00     0.001 A 
ATOM     16  C   UNL     1     -16.188  11.544  11.079  1.00  0.00     0.004 A 
ENDBRANCH   7   8
ENDBRANCH   1   7
TORSDOF 3
ENDMDL
MODEL 19
REMARK VINA RESULT:    -4.146      8.889      9.740
REMARK INTER + INTRA:          -5.065
REMARK INTER:                  -4.685
REMARK INTRA:                  -0.381
REMARK UNBOUND:                -0.313
REMARK SMILES NS(=O)(=O)Cc1noc2ccccc12
REMARK SMILES IDX 2 1 3 2 4 3 1 4 5 7 6 8 7 9 14 10 8 11 9 12 13 13 10 14
REMARK SMILES IDX 12 15 11 16
REMARK H PARENT 1 5 1 6
REMARK Flexibility Score: inf
ROOT
ATOM      1  S   UNL     1     -14.829  19.196  10.341  1.00  0.00     0.214 S 
ATOM      2  O   UNL     1     -15.927  20.331  10.062  1.00  0.00    -0.212 OA
ATOM      3  O   UNL     1     -14.872  18.769  11.885  1.00  0.00    -0.212 OA
ENDROOT
BRANCH   1   4
ATOM      4  N   UNL     1     -13.244  19.866  10.001  1.00  0.00    -0.228 NA
ATOM      5  H   UNL     1     -13.159  20.809   9.651  1.00  0.00     0.137 HD
ATOM      6  H   UNL     1     -12.416  19.308  10.155  1.00  0.00     0.137 HD
ENDBRANCH   1   4
BRANCH   1   7
ATOM      7  C   UNL     1     -15.114  17.739   9.266  1.00  0.00     0.214 C 
BRANCH   7   8
ATOM      8  C   UNL     1     -14.124  16.674   9.513  1.00  0.00     0.108 A 
ATOM      9  N   UNL     1     -12.809  16.789   9.238  1.00  0.00    -0.083 NA
ATOM     10  C   UNL     1     -14.317  15.395  10.031  1.00  0.00     0.046 A 
ATOM     11  O   UNL     1     -12.165  15.684   9.521  1.00  0.00    -0.356 OA
ATOM     12  C   UNL     1     -13.063  14.796  10.001  1.00  0.00     0.167 A 
ATOM     13  C   UNL     1     -15.443  14.701  10.515  1.00  0.00     0.014 A 
ATOM     14  C   UNL     1     -12.876  13.471  10.420  1.00  0.00     0.051 A 
ATOM     15  C   UNL     1     -15.270  13.366  10.945  1.00  0.00     0.001 A 
ATOM     16  C   UNL     1     -13.997  12.751  10.885  1.00  0.00     0.004 A 
ENDBRANCH   7   8
ENDBRANCH   1   7
TORSDOF 3
ENDMDL
