MODEL 1
REMARK VINA RESULT:    -5.623      0.000      0.000
REMARK INTER + INTRA:          -6.151
REMARK INTER:                  -6.116
REMARK INTRA:                  -0.036
REMARK UNBOUND:                -0.036
REMARK SMILES O=[N+]([O-])c1ccc(O)c2ncccc12
REMARK SMILES IDX 7 1 9 2 10 3 11 4 12 5 13 6 14 7 4 8 5 9 6 10 8 11 2 13 3 14
REMARK SMILES IDX 1 15
REMARK H PARENT 8 12
REMARK Flexibility Score: inf
ROOT
ATOM      1  C   UNL     1      -6.132  22.961  10.707  1.00  0.00     0.142 A 
ATOM      2  C   UNL     1      -6.014  21.658  11.230  1.00  0.00     0.119 A 
ATOM      3  N   UNL     1      -6.022  21.484  12.579  1.00  0.00    -0.252 NA
ATOM      4  C   UNL     1      -5.912  20.270  13.168  1.00  0.00     0.112 A 
ATOM      5  C   UNL     1      -5.792  19.120  12.373  1.00  0.00     0.021 A 
ATOM      6  C   UNL     1      -5.792  19.255  10.973  1.00  0.00     0.019 A 
ATOM      7  C   UNL     1      -5.890  20.532  10.363  1.00  0.00     0.082 A 
ATOM      8  C   UNL     1      -5.876  20.732   8.952  1.00  0.00     0.279 A 
ATOM      9  C   UNL     1      -6.009  22.049   8.450  1.00  0.00     0.090 A 
ATOM     10  C   UNL     1      -6.132  23.149   9.314  1.00  0.00     0.055 A 
ENDROOT
BRANCH   1  11
ATOM     11  O   UNL     1      -6.242  24.032  11.538  1.00  0.00    -0.506 OA
ATOM     12  H   UNL     1      -7.010  24.552  11.289  1.00  0.00     0.293 HD
ENDBRANCH   1  11
BRANCH   8  13
ATOM     13  N   UNL     1      -5.717  19.736   8.080  1.00  0.00     0.063 N 
ATOM     14  O   UNL     1      -4.586  19.186   7.914  1.00  0.00    -0.258 OA
ATOM     15  O   UNL     1      -6.603  19.358   7.415  1.00  0.00    -0.258 OA
ENDBRANCH   8  13
TORSDOF 2
ENDMDL
MODEL 2
REMARK VINA RESULT:    -5.299      2.779      4.083
REMARK INTER + INTRA:          -5.800
REMARK INTER:                  -5.809
REMARK INTRA:                   0.009
REMARK UNBOUND:                -0.036
REMARK SMILES O=[N+]([O-])c1ccc(O)c2ncccc12
REMARK SMILES IDX 7 1 9 2 10 3 11 4 12 5 13 6 14 7 4 8 5 9 6 10 8 11 2 13 3 14
REMARK SMILES IDX 1 15
REMARK H PARENT 8 12
REMARK Flexibility Score: inf
ROOT
ATOM      1  C   UNL     1      -5.874  22.559  12.086  1.00  0.00     0.142 A 
ATOM      2  C   UNL     1      -5.661  21.424  11.279  1.00  0.00     0.119 A 
ATOM      3  N   UNL     1      -5.362  21.595   9.963  1.00  0.00    -0.252 NA
ATOM      4  C   UNL     1      -5.144  20.562   9.115  1.00  0.00     0.112 A 
ATOM      5  C   UNL     1      -5.216  19.244   9.592  1.00  0.00     0.021 A 
ATOM      6  C   UNL     1      -5.511  19.024  10.949  1.00  0.00     0.019 A 
ATOM      7  C   UNL     1      -5.756  20.110  11.827  1.00  0.00     0.082 A 
ATOM      8  C   UNL     1      -6.077  19.948  13.207  1.00  0.00     0.279 A 
ATOM      9  C   UNL     1      -6.274  21.105  14.001  1.00  0.00     0.090 A 
ATOM     10  C   UNL     1      -6.176  22.393  13.448  1.00  0.00     0.055 A 
ENDROOT
BRANCH   1  11
ATOM     11  O   UNL     1      -5.791  23.809  11.556  1.00  0.00    -0.506 OA
ATOM     12  H   UNL     1      -4.904  24.153  11.685  1.00  0.00     0.293 HD
ENDBRANCH   1  11
BRANCH   8  13
ATOM     13  N   UNL     1      -6.228  18.755  13.781  1.00  0.00     0.063 N 
ATOM     14  O   UNL     1      -7.376  18.331  14.119  1.00  0.00    -0.258 OA
ATOM     15  O   UNL     1      -5.310  18.072  14.023  1.00  0.00    -0.258 OA
ENDBRANCH   8  13
TORSDOF 2
ENDMDL
MODEL 3
REMARK VINA RESULT:    -5.266      1.650      4.775
REMARK INTER + INTRA:          -5.763
REMARK INTER:                  -5.751
REMARK INTRA:                  -0.011
REMARK UNBOUND:                -0.036
REMARK SMILES O=[N+]([O-])c1ccc(O)c2ncccc12
REMARK SMILES IDX 7 1 9 2 10 3 11 4 12 5 13 6 14 7 4 8 5 9 6 10 8 11 2 13 3 14
REMARK SMILES IDX 1 15
REMARK H PARENT 8 12
REMARK Flexibility Score: inf
ROOT
ATOM      1  C   UNL     1      -5.742  20.053   9.427  1.00  0.00     0.142 A 
ATOM      2  C   UNL     1      -6.018  21.422   9.610  1.00  0.00     0.119 A 
ATOM      3  N   UNL     1      -6.201  22.211   8.518  1.00  0.00    -0.252 NA
ATOM      4  C   UNL     1      -6.469  23.535   8.600  1.00  0.00     0.112 A 
ATOM      5  C   UNL     1      -6.574  24.146   9.858  1.00  0.00     0.021 A 
ATOM      6  C   UNL     1      -6.403  23.364  11.014  1.00  0.00     0.019 A 
ATOM      7  C   UNL     1      -6.106  21.981  10.920  1.00  0.00     0.082 A 
ATOM      8  C   UNL     1      -5.903  21.141  12.055  1.00  0.00     0.279 A 
ATOM      9  C   UNL     1      -5.640  19.766  11.846  1.00  0.00     0.090 A 
ATOM     10  C   UNL     1      -5.557  19.228  10.550  1.00  0.00     0.055 A 
ENDROOT
BRANCH   1  11
ATOM     11  O   UNL     1      -5.650  19.527   8.176  1.00  0.00    -0.506 OA
ATOM     12  H   UNL     1      -6.508  19.569   7.748  1.00  0.00     0.293 HD
ENDBRANCH   1  11
BRANCH   8  13
ATOM     13  N   UNL     1      -5.924  21.598  13.307  1.00  0.00     0.063 N 
ATOM     14  O   UNL     1      -6.923  21.394  14.062  1.00  0.00    -0.258 OA
ATOM     15  O   UNL     1      -5.040  22.229  13.742  1.00  0.00    -0.258 OA
ENDBRANCH   8  13
TORSDOF 2
ENDMDL
MODEL 4
REMARK VINA RESULT:    -5.031      1.290      3.157
REMARK INTER + INTRA:          -5.507
REMARK INTER:                  -5.536
REMARK INTRA:                   0.028
REMARK UNBOUND:                -0.036
REMARK SMILES O=[N+]([O-])c1ccc(O)c2ncccc12
REMARK SMILES IDX 7 1 9 2 10 3 11 4 12 5 13 6 14 7 4 8 5 9 6 10 8 11 2 13 3 14
REMARK SMILES IDX 1 15
REMARK H PARENT 8 12
REMARK Flexibility Score: inf
ROOT
ATOM      1  C   UNL     1      -5.991  21.528  12.236  1.00  0.00     0.142 A 
ATOM      2  C   UNL     1      -6.139  22.302  11.068  1.00  0.00     0.119 A 
ATOM      3  N   UNL     1      -6.387  23.634  11.185  1.00  0.00    -0.252 NA
ATOM      4  C   UNL     1      -6.545  24.452  10.118  1.00  0.00     0.112 A 
ATOM      5  C   UNL     1      -6.446  23.928   8.820  1.00  0.00     0.021 A 
ATOM      6  C   UNL     1      -6.178  22.558   8.655  1.00  0.00     0.019 A 
ATOM      7  C   UNL     1      -6.031  21.704   9.778  1.00  0.00     0.082 A 
ATOM      8  C   UNL     1      -5.778  20.305   9.673  1.00  0.00     0.279 A 
ATOM      9  C   UNL     1      -5.620  19.550  10.861  1.00  0.00     0.090 A 
ATOM     10  C   UNL     1      -5.727  20.152  12.125  1.00  0.00     0.055 A 
ENDROOT
BRANCH   1  11
ATOM     11  O   UNL     1      -6.103  22.102  13.464  1.00  0.00    -0.506 OA
ATOM     12  H   UNL     1      -5.279  22.540  13.689  1.00  0.00     0.293 HD
ENDBRANCH   1  11
BRANCH   8  13
ATOM     13  N   UNL     1      -5.709  19.666   8.504  1.00  0.00     0.063 N 
ATOM     14  O   UNL     1      -6.733  19.542   7.765  1.00  0.00    -0.258 OA
ATOM     15  O   UNL     1      -4.716  19.170   8.136  1.00  0.00    -0.258 OA
ENDBRANCH   8  13
TORSDOF 2
ENDMDL
MODEL 5
REMARK VINA RESULT:    -4.945      2.493      4.210
REMARK INTER + INTRA:          -5.414
REMARK INTER:                  -5.378
REMARK INTRA:                  -0.036
REMARK UNBOUND:                -0.036
REMARK SMILES O=[N+]([O-])c1ccc(O)c2ncccc12
REMARK SMILES IDX 7 1 9 2 10 3 11 4 12 5 13 6 14 7 4 8 5 9 6 10 8 11 2 13 3 14
REMARK SMILES IDX 1 15
REMARK H PARENT 8 12
REMARK Flexibility Score: inf
ROOT
ATOM      1  C   UNL     1      -5.750  19.624  12.468  1.00  0.00     0.142 A 
ATOM      2  C   UNL     1      -5.375  19.824  11.124  1.00  0.00     0.119 A 
ATOM      3  N   UNL     1      -5.021  18.750  10.370  1.00  0.00    -0.252 NA
ATOM      4  C   UNL     1      -4.645  18.850   9.073  1.00  0.00     0.112 A 
ATOM      5  C   UNL     1      -4.619  20.108   8.452  1.00  0.00     0.021 A 
ATOM      6  C   UNL     1      -4.990  21.244   9.194  1.00  0.00     0.019 A 
ATOM      7  C   UNL     1      -5.365  21.133  10.557  1.00  0.00     0.082 A 
ATOM      8  C   UNL     1      -5.733  22.250  11.364  1.00  0.00     0.279 A 
ATOM      9  C   UNL     1      -6.118  22.021  12.708  1.00  0.00     0.090 A 
ATOM     10  C   UNL     1      -6.125  20.727  13.253  1.00  0.00     0.055 A 
ENDROOT
BRANCH   1  11
ATOM     11  O   UNL     1      -5.750  18.375  13.007  1.00  0.00    -0.506 OA
ATOM     12  H   UNL     1      -4.891  18.195  13.395  1.00  0.00     0.293 HD
ENDBRANCH   1  11
BRANCH   8  13
ATOM     13  N   UNL     1      -5.704  23.506  10.919  1.00  0.00     0.063 N 
ATOM     14  O   UNL     1      -4.604  24.117  10.753  1.00  0.00    -0.258 OA
ATOM     15  O   UNL     1      -6.688  24.100  10.700  1.00  0.00    -0.258 OA
ENDBRANCH   8  13
TORSDOF 2
ENDMDL
MODEL 6
REMARK VINA RESULT:    -4.810      1.847      3.683
REMARK INTER + INTRA:          -5.268
REMARK INTER:                  -5.184
REMARK INTRA:                  -0.084
REMARK UNBOUND:                -0.036
REMARK SMILES O=[N+]([O-])c1ccc(O)c2ncccc12
REMARK SMILES IDX 7 1 9 2 10 3 11 4 12 5 13 6 14 7 4 8 5 9 6 10 8 11 2 13 3 14
REMARK SMILES IDX 1 15
REMARK H PARENT 8 12
REMARK Flexibility Score: inf
ROOT
ATOM      1  C   UNL     1      -5.031  19.565   9.889  1.00  0.00     0.142 A 
ATOM      2  C   UNL     1      -5.446  20.020  11.157  1.00  0.00     0.119 A 
ATOM      3  N   UNL     1      -5.651  19.113  12.149  1.00  0.00    -0.252 NA
ATOM      4  C   UNL     1      -6.051  19.460  13.395  1.00  0.00     0.112 A 
ATOM      5  C   UNL     1      -6.263  20.812  13.706  1.00  0.00     0.021 A 
ATOM      6  C   UNL     1      -6.051  21.783  12.712  1.00  0.00     0.019 A 
ATOM      7  C   UNL     1      -5.648  21.410  11.403  1.00  0.00     0.082 A 
ATOM      8  C   UNL     1      -5.435  22.347  10.350  1.00  0.00     0.279 A 
ATOM      9  C   UNL     1      -5.007  21.868   9.089  1.00  0.00     0.090 A 
ATOM     10  C   UNL     1      -4.809  20.496   8.860  1.00  0.00     0.055 A 
ENDROOT
BRANCH   1  11
ATOM     11  O   UNL     1      -4.847  18.238   9.657  1.00  0.00    -0.506 OA
ATOM     12  H   UNL     1      -4.982  18.055   8.725  1.00  0.00     0.293 HD
ENDBRANCH   1  11
BRANCH   8  13
ATOM     13  N   UNL     1      -5.648  23.656  10.490  1.00  0.00     0.063 N 
ATOM     14  O   UNL     1      -6.816  24.143  10.397  1.00  0.00    -0.258 OA
ATOM     15  O   UNL     1      -4.766  24.403  10.668  1.00  0.00    -0.258 OA
ENDBRANCH   8  13
TORSDOF 2
ENDMDL
MODEL 7
REMARK VINA RESULT:    -4.594     15.659     17.267
REMARK INTER + INTRA:          -5.032
REMARK INTER:                  -4.933
REMARK INTRA:                  -0.099
REMARK UNBOUND:                -0.036
REMARK SMILES O=[N+]([O-])c1ccc(O)c2ncccc12
REMARK SMILES IDX 7 1 9 2 10 3 11 4 12 5 13 6 14 7 4 8 5 9 6 10 8 11 2 13 3 14
REMARK SMILES IDX 1 15
REMARK H PARENT 8 12
REMARK Flexibility Score: inf
ROOT
ATOM      1  C   UNL     1     -13.017   6.410  16.005  1.00  0.00     0.142 A 
ATOM      2  C   UNL     1     -12.556   7.481  16.795  1.00  0.00     0.119 A 
ATOM      3  N   UNL     1     -11.231   7.788  16.784  1.00  0.00    -0.252 NA
ATOM      4  C   UNL     1     -10.701   8.799  17.512  1.00  0.00     0.112 A 
ATOM      5  C   UNL     1     -11.536   9.587  18.319  1.00  0.00     0.021 A 
ATOM      6  C   UNL     1     -12.915   9.310  18.350  1.00  0.00     0.019 A 
ATOM      7  C   UNL     1     -13.460   8.239  17.598  1.00  0.00     0.082 A 
ATOM      8  C   UNL     1     -14.845   7.900  17.604  1.00  0.00     0.279 A 
ATOM      9  C   UNL     1     -15.287   6.827  16.792  1.00  0.00     0.090 A 
ATOM     10  C   UNL     1     -14.386   6.090  16.005  1.00  0.00     0.055 A 
ENDROOT
BRANCH   1  11
ATOM     11  O   UNL     1     -12.150   5.685  15.248  1.00  0.00    -0.506 OA
ATOM     12  H   UNL     1     -12.084   4.795  15.601  1.00  0.00     0.293 HD
ENDBRANCH   1  11
BRANCH   8  13
ATOM     13  N   UNL     1     -15.742   8.530  18.362  1.00  0.00     0.063 N 
ATOM     14  O   UNL     1     -15.980   8.149  19.548  1.00  0.00    -0.258 OA
ATOM     15  O   UNL     1     -16.364   9.431  17.951  1.00  0.00    -0.258 OA
ENDBRANCH   8  13
TORSDOF 2
ENDMDL
MODEL 8
REMARK VINA RESULT:    -4.580      7.572      8.430
REMARK INTER + INTRA:          -5.017
REMARK INTER:                  -4.919
REMARK INTRA:                  -0.099
REMARK UNBOUND:                -0.036
REMARK SMILES O=[N+]([O-])c1ccc(O)c2ncccc12
REMARK SMILES IDX 7 1 9 2 10 3 11 4 12 5 13 6 14 7 4 8 5 9 6 10 8 11 2 13 3 14
REMARK SMILES IDX 1 15
REMARK H PARENT 8 12
REMARK Flexibility Score: inf
ROOT
ATOM      1  C   UNL     1     -12.932  19.115  10.885  1.00  0.00     0.142 A 
ATOM      2  C   UNL     1     -12.518  17.783  10.690  1.00  0.00     0.119 A 
ATOM      3  N   UNL     1     -12.438  17.294   9.424  1.00  0.00    -0.252 NA
ATOM      4  C   UNL     1     -12.051  16.027   9.145  1.00  0.00     0.112 A 
ATOM      5  C   UNL     1     -11.704  15.159  10.191  1.00  0.00     0.021 A 
ATOM      6  C   UNL     1     -11.761  15.629  11.516  1.00  0.00     0.019 A 
ATOM      7  C   UNL     1     -12.184  16.952  11.802  1.00  0.00     0.082 A 
ATOM      8  C   UNL     1     -12.280  17.478  13.123  1.00  0.00     0.279 A 
ATOM      9  C   UNL     1     -12.687  18.824  13.293  1.00  0.00     0.090 A 
ATOM     10  C   UNL     1     -13.011  19.631  12.190  1.00  0.00     0.055 A 
ENDROOT
BRANCH   1  11
ATOM     11  O   UNL     1     -13.257  19.900   9.823  1.00  0.00    -0.506 OA
ATOM     12  H   UNL     1     -12.640  20.633   9.766  1.00  0.00     0.293 HD
ENDBRANCH   1  11
BRANCH   8  13
ATOM     13  N   UNL     1     -12.030  16.751  14.213  1.00  0.00     0.063 N 
ATOM     14  O   UNL     1     -12.938  16.049  14.753  1.00  0.00    -0.258 OA
ATOM     15  O   UNL     1     -10.979  16.761  14.726  1.00  0.00    -0.258 OA
ENDBRANCH   8  13
TORSDOF 2
ENDMDL
MODEL 9
REMARK VINA RESULT:    -4.544      1.724      2.157
REMARK INTER + INTRA:          -4.978
REMARK INTER:                  -4.904
REMARK INTRA:                  -0.074
REMARK UNBOUND:                -0.036
REMARK SMILES O=[N+]([O-])c1ccc(O)c2ncccc12
REMARK SMILES IDX 7 1 9 2 10 3 11 4 12 5 13 6 14 7 4 8 5 9 6 10 8 11 2 13 3 14
REMARK SMILES IDX 1 15
REMARK H PARENT 8 12
REMARK Flexibility Score: inf
ROOT
ATOM      1  C   UNL     1      -6.124  22.680  11.522  1.00  0.00     0.142 A 
ATOM      2  C   UNL     1      -5.888  21.409  10.960  1.00  0.00     0.119 A 
ATOM      3  N   UNL     1      -5.629  20.361  11.786  1.00  0.00    -0.252 NA
ATOM      4  C   UNL     1      -5.390  19.107  11.333  1.00  0.00     0.112 A 
ATOM      5  C   UNL     1      -5.412  18.849   9.954  1.00  0.00     0.021 A 
ATOM      6  C   UNL     1      -5.688  19.905   9.067  1.00  0.00     0.019 A 
ATOM      7  C   UNL     1      -5.920  21.219   9.547  1.00  0.00     0.082 A 
ATOM      8  C   UNL     1      -6.186  22.331   8.695  1.00  0.00     0.279 A 
ATOM      9  C   UNL     1      -6.433  23.595   9.283  1.00  0.00     0.090 A 
ATOM     10  C   UNL     1      -6.400  23.769  10.677  1.00  0.00     0.055 A 
ENDROOT
BRANCH   1  11
ATOM     11  O   UNL     1      -6.084  22.859  12.869  1.00  0.00    -0.506 OA
ATOM     12  H   UNL     1      -5.799  22.046  13.291  1.00  0.00     0.293 HD
ENDBRANCH   1  11
BRANCH   8  13
ATOM     13  N   UNL     1      -6.187  22.241   7.365  1.00  0.00     0.063 N 
ATOM     14  O   UNL     1      -7.209  21.826   6.738  1.00  0.00    -0.258 OA
ATOM     15  O   UNL     1      -5.240  22.509   6.734  1.00  0.00    -0.258 OA
ENDBRANCH   8  13
TORSDOF 2
ENDMDL
MODEL 10
REMARK VINA RESULT:    -4.530      7.548      7.917
REMARK INTER + INTRA:          -4.963
REMARK INTER:                  -4.885
REMARK INTRA:                  -0.078
REMARK UNBOUND:                -0.036
REMARK SMILES O=[N+]([O-])c1ccc(O)c2ncccc12
REMARK SMILES IDX 7 1 9 2 10 3 11 4 12 5 13 6 14 7 4 8 5 9 6 10 8 11 2 13 3 14
REMARK SMILES IDX 1 15
REMARK H PARENT 8 12
REMARK Flexibility Score: inf
ROOT
ATOM      1  C   UNL     1     -12.918  18.724  10.195  1.00  0.00     0.142 A 
ATOM      2  C   UNL     1     -12.617  18.228  11.480  1.00  0.00     0.119 A 
ATOM      3  N   UNL     1     -12.636  19.082  12.538  1.00  0.00    -0.252 NA
ATOM      4  C   UNL     1     -12.358  18.693  13.805  1.00  0.00     0.112 A 
ATOM      5  C   UNL     1     -12.042  17.352  14.067  1.00  0.00     0.021 A 
ATOM      6  C   UNL     1     -12.023  16.434  13.002  1.00  0.00     0.019 A 
ATOM      7  C   UNL     1     -12.297  16.852  11.674  1.00  0.00     0.082 A 
ATOM      8  C   UNL     1     -12.275  15.972  10.553  1.00  0.00     0.279 A 
ATOM      9  C   UNL     1     -12.594  16.490   9.274  1.00  0.00     0.090 A 
ATOM     10  C   UNL     1     -12.908  17.848   9.096  1.00  0.00     0.055 A 
ENDROOT
BRANCH   1  11
ATOM     11  O   UNL     1     -13.214  20.039  10.013  1.00  0.00    -0.506 OA
ATOM     12  H   UNL     1     -13.936  20.287  10.594  1.00  0.00     0.293 HD
ENDBRANCH   1  11
BRANCH   8  13
ATOM     13  N   UNL     1     -11.941  14.684  10.648  1.00  0.00     0.063 N 
ATOM     14  O   UNL     1     -12.826  13.789  10.809  1.00  0.00    -0.258 OA
ATOM     15  O   UNL     1     -10.824  14.339  10.620  1.00  0.00    -0.258 OA
ENDBRANCH   8  13
TORSDOF 2
ENDMDL
MODEL 11
REMARK VINA RESULT:    -4.529      2.077      3.849
REMARK INTER + INTRA:          -4.962
REMARK INTER:                  -5.224
REMARK INTRA:                   0.262
REMARK UNBOUND:                -0.036
REMARK SMILES O=[N+]([O-])c1ccc(O)c2ncccc12
REMARK SMILES IDX 7 1 9 2 10 3 11 4 12 5 13 6 14 7 4 8 5 9 6 10 8 11 2 13 3 14
REMARK SMILES IDX 1 15
REMARK H PARENT 8 12
REMARK Flexibility Score: inf
ROOT
ATOM      1  C   UNL     1      -6.359  22.854   8.870  1.00  0.00     0.142 A 
ATOM      2  C   UNL     1      -5.836  21.562   9.074  1.00  0.00     0.119 A 
ATOM      3  N   UNL     1      -5.575  20.777   7.996  1.00  0.00    -0.252 NA
ATOM      4  C   UNL     1      -5.073  19.523   8.099  1.00  0.00     0.112 A 
ATOM      5  C   UNL     1      -4.793  18.989   9.366  1.00  0.00     0.021 A 
ATOM      6  C   UNL     1      -5.037  19.773  10.508  1.00  0.00     0.019 A 
ATOM      7  C   UNL     1      -5.579  21.079  10.392  1.00  0.00     0.082 A 
ATOM      8  C   UNL     1      -5.865  21.913  11.513  1.00  0.00     0.279 A 
ATOM      9  C   UNL     1      -6.379  23.212  11.281  1.00  0.00     0.090 A 
ATOM     10  C   UNL     1      -6.625  23.676   9.978  1.00  0.00     0.055 A 
ENDROOT
BRANCH   1  11
ATOM     11  O   UNL     1      -6.610  23.307   7.612  1.00  0.00    -0.506 OA
ATOM     12  H   UNL     1      -7.272  22.749   7.197  1.00  0.00     0.293 HD
ENDBRANCH   1  11
BRANCH   8  13
ATOM     13  N   UNL     1      -5.696  21.516  12.774  1.00  0.00     0.063 N 
ATOM     14  O   UNL     1      -6.133  20.392  13.171  1.00  0.00    -0.258 OA
ATOM     15  O   UNL     1      -5.171  22.199  13.565  1.00  0.00    -0.258 OA
ENDBRANCH   8  13
TORSDOF 2
ENDMDL
MODEL 12
REMARK VINA RESULT:    -4.491      9.364     10.206
REMARK INTER + INTRA:          -4.920
REMARK INTER:                  -4.824
REMARK INTRA:                  -0.096
REMARK UNBOUND:                -0.036
REMARK SMILES O=[N+]([O-])c1ccc(O)c2ncccc12
REMARK SMILES IDX 7 1 9 2 10 3 11 4 12 5 13 6 14 7 4 8 5 9 6 10 8 11 2 13 3 14
REMARK SMILES IDX 1 15
REMARK H PARENT 8 12
REMARK Flexibility Score: inf
ROOT
ATOM      1  C   UNL     1     -12.784  17.028   9.238  1.00  0.00     0.142 A 
ATOM      2  C   UNL     1     -14.101  16.715   9.631  1.00  0.00     0.119 A 
ATOM      3  N   UNL     1     -15.104  17.582   9.330  1.00  0.00    -0.252 NA
ATOM      4  C   UNL     1     -16.396  17.362   9.669  1.00  0.00     0.112 A 
ATOM      5  C   UNL     1     -16.744  16.191  10.358  1.00  0.00     0.021 A 
ATOM      6  C   UNL     1     -15.738  15.262  10.678  1.00  0.00     0.019 A 
ATOM      7  C   UNL     1     -14.384  15.507  10.335  1.00  0.00     0.082 A 
ATOM      8  C   UNL     1     -13.320  14.612  10.649  1.00  0.00     0.279 A 
ATOM      9  C   UNL     1     -12.007  14.942  10.233  1.00  0.00     0.090 A 
ATOM     10  C   UNL     1     -11.742  16.135   9.539  1.00  0.00     0.055 A 
ENDROOT
BRANCH   1  11
ATOM     11  O   UNL     1     -12.517  18.185   8.575  1.00  0.00    -0.506 OA
ATOM     12  H   UNL     1     -12.059  17.985   7.755  1.00  0.00     0.293 HD
ENDBRANCH   1  11
BRANCH   8  13
ATOM     13  N   UNL     1     -13.499  13.488  11.343  1.00  0.00     0.063 N 
ATOM     14  O   UNL     1     -13.385  13.474  12.607  1.00  0.00    -0.258 OA
ATOM     15  O   UNL     1     -13.733  12.472  10.812  1.00  0.00    -0.258 OA
ENDBRANCH   8  13
TORSDOF 2
ENDMDL
MODEL 13
REMARK VINA RESULT:    -4.477     15.191     16.529
REMARK INTER + INTRA:          -4.905
REMARK INTER:                  -4.806
REMARK INTRA:                  -0.099
REMARK UNBOUND:                -0.036
REMARK SMILES O=[N+]([O-])c1ccc(O)c2ncccc12
REMARK SMILES IDX 7 1 9 2 10 3 11 4 12 5 13 6 14 7 4 8 5 9 6 10 8 11 2 13 3 14
REMARK SMILES IDX 1 15
REMARK H PARENT 8 12
REMARK Flexibility Score: inf
ROOT
ATOM      1  C   UNL     1     -11.226   9.163  17.941  1.00  0.00     0.142 A 
ATOM      2  C   UNL     1     -12.144   8.269  17.354  1.00  0.00     0.119 A 
ATOM      3  N   UNL     1     -11.673   7.224  16.623  1.00  0.00    -0.252 NA
ATOM      4  C   UNL     1     -12.482   6.319  16.024  1.00  0.00     0.112 A 
ATOM      5  C   UNL     1     -13.874   6.437  16.152  1.00  0.00     0.021 A 
ATOM      6  C   UNL     1     -14.402   7.498  16.910  1.00  0.00     0.019 A 
ATOM      7  C   UNL     1     -13.549   8.452  17.521  1.00  0.00     0.082 A 
ATOM      8  C   UNL     1     -14.026   9.558  18.284  1.00  0.00     0.279 A 
ATOM      9  C   UNL     1     -13.084  10.435  18.874  1.00  0.00     0.090 A 
ATOM     10  C   UNL     1     -11.703  10.242  18.704  1.00  0.00     0.055 A 
ENDROOT
BRANCH   1  11
ATOM     11  O   UNL     1      -9.888   8.989  17.772  1.00  0.00    -0.506 OA
ATOM     12  H   UNL     1      -9.495   8.707  18.601  1.00  0.00     0.293 HD
ENDBRANCH   1  11
BRANCH   8  13
ATOM     13  N   UNL     1     -15.323   9.822  18.446  1.00  0.00     0.063 N 
ATOM     14  O   UNL     1     -15.955  10.536  17.609  1.00  0.00    -0.258 OA
ATOM     15  O   UNL     1     -15.914   9.434  19.378  1.00  0.00    -0.258 OA
ENDBRANCH   8  13
TORSDOF 2
ENDMDL
MODEL 14
REMARK VINA RESULT:    -4.449      9.509     10.030
REMARK INTER + INTRA:          -4.875
REMARK INTER:                  -4.849
REMARK INTRA:                  -0.026
REMARK UNBOUND:                -0.036
REMARK SMILES O=[N+]([O-])c1ccc(O)c2ncccc12
REMARK SMILES IDX 7 1 9 2 10 3 11 4 12 5 13 6 14 7 4 8 5 9 6 10 8 11 2 13 3 14
REMARK SMILES IDX 1 15
REMARK H PARENT 8 12
REMARK Flexibility Score: inf
ROOT
ATOM      1  C   UNL     1     -13.335  18.486   9.657  1.00  0.00     0.142 A 
ATOM      2  C   UNL     1     -14.696  18.126   9.716  1.00  0.00     0.119 A 
ATOM      3  N   UNL     1     -15.625  19.091   9.952  1.00  0.00    -0.252 NA
ATOM      4  C   UNL     1     -16.952  18.835  10.026  1.00  0.00     0.112 A 
ATOM      5  C   UNL     1     -17.419  17.523   9.848  1.00  0.00     0.021 A 
ATOM      6  C   UNL     1     -16.492  16.498   9.590  1.00  0.00     0.019 A 
ATOM      7  C   UNL     1     -15.101  16.771   9.531  1.00  0.00     0.082 A 
ATOM      8  C   UNL     1     -14.114  15.770   9.292  1.00  0.00     0.279 A 
ATOM      9  C   UNL     1     -12.754  16.158   9.224  1.00  0.00     0.090 A 
ATOM     10  C   UNL     1     -12.369  17.497   9.406  1.00  0.00     0.055 A 
ENDROOT
BRANCH   1  11
ATOM     11  O   UNL     1     -12.953  19.778   9.842  1.00  0.00    -0.506 OA
ATOM     12  H   UNL     1     -12.978  19.988  10.778  1.00  0.00     0.293 HD
ENDBRANCH   1  11
BRANCH   8  13
ATOM     13  N   UNL     1     -14.410  14.477   9.155  1.00  0.00     0.063 N 
ATOM     14  O   UNL     1     -14.194  13.654  10.096  1.00  0.00    -0.258 OA
ATOM     15  O   UNL     1     -14.846  14.053   8.156  1.00  0.00    -0.258 OA
ENDBRANCH   8  13
TORSDOF 2
ENDMDL
MODEL 15
REMARK VINA RESULT:    -4.429     15.222     16.441
REMARK INTER + INTRA:          -4.853
REMARK INTER:                  -4.755
REMARK INTRA:                  -0.098
REMARK UNBOUND:                -0.036
REMARK SMILES O=[N+]([O-])c1ccc(O)c2ncccc12
REMARK SMILES IDX 7 1 9 2 10 3 11 4 12 5 13 6 14 7 4 8 5 9 6 10 8 11 2 13 3 14
REMARK SMILES IDX 1 15
REMARK H PARENT 8 12
REMARK Flexibility Score: inf
ROOT
ATOM      1  C   UNL     1     -11.132   8.619  17.575  1.00  0.00     0.142 A 
ATOM      2  C   UNL     1     -12.202   9.323  18.165  1.00  0.00     0.119 A 
ATOM      3  N   UNL     1     -11.931  10.402  18.946  1.00  0.00    -0.252 NA
ATOM      4  C   UNL     1     -12.894  11.134  19.553  1.00  0.00     0.112 A 
ATOM      5  C   UNL     1     -14.243  10.790  19.377  1.00  0.00     0.021 A 
ATOM      6  C   UNL     1     -14.567   9.688  18.566  1.00  0.00     0.019 A 
ATOM      7  C   UNL     1     -13.551   8.914  17.949  1.00  0.00     0.082 A 
ATOM      8  C   UNL     1     -13.817   7.776  17.132  1.00  0.00     0.279 A 
ATOM      9  C   UNL     1     -12.727   7.093  16.540  1.00  0.00     0.090 A 
ATOM     10  C   UNL     1     -11.403   7.507  16.760  1.00  0.00     0.055 A 
ENDROOT
BRANCH   1  11
ATOM     11  O   UNL     1      -9.847   9.007  17.791  1.00  0.00    -0.506 OA
ATOM     12  H   UNL     1      -9.449   9.273  16.959  1.00  0.00     0.293 HD
ENDBRANCH   1  11
BRANCH   8  13
ATOM     13  N   UNL     1     -15.047   7.307  16.921  1.00  0.00     0.063 N 
ATOM     14  O   UNL     1     -15.585   6.493  17.733  1.00  0.00    -0.258 OA
ATOM     15  O   UNL     1     -15.659   7.601  15.969  1.00  0.00    -0.258 OA
ENDBRANCH   8  13
TORSDOF 2
ENDMDL
MODEL 16
REMARK VINA RESULT:    -4.393      2.064      3.529
REMARK INTER + INTRA:          -4.813
REMARK INTER:                  -5.163
REMARK INTRA:                   0.350
REMARK UNBOUND:                -0.036
REMARK SMILES O=[N+]([O-])c1ccc(O)c2ncccc12
REMARK SMILES IDX 7 1 9 2 10 3 11 4 12 5 13 6 14 7 4 8 5 9 6 10 8 11 2 13 3 14
REMARK SMILES IDX 1 15
REMARK H PARENT 8 12
REMARK Flexibility Score: inf
ROOT
ATOM      1  C   UNL     1      -5.872  23.549  10.558  1.00  0.00     0.142 A 
ATOM      2  C   UNL     1      -6.154  22.662   9.500  1.00  0.00     0.119 A 
ATOM      3  N   UNL     1      -6.526  23.169   8.294  1.00  0.00    -0.252 NA
ATOM      4  C   UNL     1      -6.818  22.392   7.225  1.00  0.00     0.112 A 
ATOM      5  C   UNL     1      -6.732  20.996   7.336  1.00  0.00     0.021 A 
ATOM      6  C   UNL     1      -6.339  20.431   8.562  1.00  0.00     0.019 A 
ATOM      7  C   UNL     1      -6.053  21.251   9.683  1.00  0.00     0.082 A 
ATOM      8  C   UNL     1      -5.668  20.736  10.956  1.00  0.00     0.279 A 
ATOM      9  C   UNL     1      -5.378  21.647  12.000  1.00  0.00     0.090 A 
ATOM     10  C   UNL     1      -5.480  23.035  11.805  1.00  0.00     0.055 A 
ENDROOT
BRANCH   1  11
ATOM     11  O   UNL     1      -5.978  24.893  10.380  1.00  0.00    -0.506 OA
ATOM     12  H   UNL     1      -6.818  25.196  10.731  1.00  0.00     0.293 HD
ENDBRANCH   1  11
BRANCH   8  13
ATOM     13  N   UNL     1      -5.596  19.430  11.218  1.00  0.00     0.063 N 
ATOM     14  O   UNL     1      -6.049  18.955  12.304  1.00  0.00    -0.258 OA
ATOM     15  O   UNL     1      -5.085  18.686  10.475  1.00  0.00    -0.258 OA
ENDBRANCH   8  13
TORSDOF 2
ENDMDL
MODEL 17
REMARK VINA RESULT:    -4.333     14.833     16.520
REMARK INTER + INTRA:          -4.749
REMARK INTER:                  -4.655
REMARK INTRA:                  -0.093
REMARK UNBOUND:                -0.036
REMARK SMILES O=[N+]([O-])c1ccc(O)c2ncccc12
REMARK SMILES IDX 7 1 9 2 10 3 11 4 12 5 13 6 14 7 4 8 5 9 6 10 8 11 2 13 3 14
REMARK SMILES IDX 1 15
REMARK H PARENT 8 12
REMARK Flexibility Score: inf
ROOT
ATOM      1  C   UNL     1     -11.783   7.470  16.786  1.00  0.00     0.142 A 
ATOM      2  C   UNL     1     -13.125   7.751  17.113  1.00  0.00     0.119 A 
ATOM      3  N   UNL     1     -14.097   6.894  16.703  1.00  0.00    -0.252 NA
ATOM      4  C   UNL     1     -15.411   7.085  16.970  1.00  0.00     0.112 A 
ATOM      5  C   UNL     1     -15.813   8.208  17.710  1.00  0.00     0.021 A 
ATOM      6  C   UNL     1     -14.837   9.112  18.164  1.00  0.00     0.019 A 
ATOM      7  C   UNL     1     -13.465   8.915  17.865  1.00  0.00     0.082 A 
ATOM      8  C   UNL     1     -12.433   9.806  18.282  1.00  0.00     0.279 A 
ATOM      9  C   UNL     1     -11.091   9.497  17.952  1.00  0.00     0.090 A 
ATOM     10  C   UNL     1     -10.770   8.346  17.213  1.00  0.00     0.055 A 
ENDROOT
BRANCH   1  11
ATOM     11  O   UNL     1     -11.464   6.364  16.062  1.00  0.00    -0.506 OA
ATOM     12  H   UNL     1     -10.619   6.498  15.629  1.00  0.00     0.293 HD
ENDBRANCH   1  11
BRANCH   8  13
ATOM     13  N   UNL     1     -12.676  10.936  18.946  1.00  0.00     0.063 N 
ATOM     14  O   UNL     1     -12.840  12.034  18.332  1.00  0.00    -0.258 OA
ATOM     15  O   UNL     1     -12.714  10.962  20.115  1.00  0.00    -0.258 OA
ENDBRANCH   8  13
TORSDOF 2
ENDMDL
MODEL 18
REMARK VINA RESULT:    -4.331      8.644      9.810
REMARK INTER + INTRA:          -4.746
REMARK INTER:                  -4.660
REMARK INTRA:                  -0.086
REMARK UNBOUND:                -0.036
REMARK SMILES O=[N+]([O-])c1ccc(O)c2ncccc12
REMARK SMILES IDX 7 1 9 2 10 3 11 4 12 5 13 6 14 7 4 8 5 9 6 10 8 11 2 13 3 14
REMARK SMILES IDX 1 15
REMARK H PARENT 8 12
REMARK Flexibility Score: inf
ROOT
ATOM      1  C   UNL     1     -12.779  14.496  12.283  1.00  0.00     0.142 A 
ATOM      2  C   UNL     1     -13.434  14.445  11.036  1.00  0.00     0.119 A 
ATOM      3  N   UNL     1     -14.155  13.339  10.713  1.00  0.00    -0.252 NA
ATOM      4  C   UNL     1     -14.814  13.204   9.538  1.00  0.00     0.112 A 
ATOM      5  C   UNL     1     -14.774  14.242   8.596  1.00  0.00     0.021 A 
ATOM      6  C   UNL     1     -14.049  15.409   8.895  1.00  0.00     0.019 A 
ATOM      7  C   UNL     1     -13.347  15.536  10.121  1.00  0.00     0.082 A 
ATOM      8  C   UNL     1     -12.581  16.686  10.472  1.00  0.00     0.279 A 
ATOM      9  C   UNL     1     -11.942  16.719  11.735  1.00  0.00     0.090 A 
ATOM     10  C   UNL     1     -12.037  15.639  12.628  1.00  0.00     0.055 A 
ENDROOT
BRANCH   1  11
ATOM     11  O   UNL     1     -12.858  13.450  13.148  1.00  0.00    -0.506 OA
ATOM     12  H   UNL     1     -12.220  13.571  13.855  1.00  0.00     0.293 HD
ENDBRANCH   1  11
BRANCH   8  13
ATOM     13  N   UNL     1     -12.414  17.724   9.652  1.00  0.00     0.063 N 
ATOM     14  O   UNL     1     -13.234  18.693   9.648  1.00  0.00    -0.258 OA
ATOM     15  O   UNL     1     -11.530  17.764   8.888  1.00  0.00    -0.258 OA
ENDBRANCH   8  13
TORSDOF 2
ENDMDL
MODEL 19
REMARK VINA RESULT:    -4.308      7.613      8.569
REMARK INTER + INTRA:          -4.722
REMARK INTER:                  -4.662
REMARK INTRA:                  -0.060
REMARK UNBOUND:                -0.036
REMARK SMILES O=[N+]([O-])c1ccc(O)c2ncccc12
REMARK SMILES IDX 7 1 9 2 10 3 11 4 12 5 13 6 14 7 4 8 5 9 6 10 8 11 2 13 3 14
REMARK SMILES IDX 1 15
REMARK H PARENT 8 12
REMARK Flexibility Score: inf
ROOT
ATOM      1  C   UNL     1     -12.156  17.281   9.724  1.00  0.00     0.142 A 
ATOM      2  C   UNL     1     -12.483  17.818  10.985  1.00  0.00     0.119 A 
ATOM      3  N   UNL     1     -12.819  19.132  11.076  1.00  0.00    -0.252 NA
ATOM      4  C   UNL     1     -13.145  19.731  12.246  1.00  0.00     0.112 A 
ATOM      5  C   UNL     1     -13.151  18.983  13.433  1.00  0.00     0.021 A 
ATOM      6  C   UNL     1     -12.820  17.617  13.380  1.00  0.00     0.019 A 
ATOM      7  C   UNL     1     -12.462  17.000  12.154  1.00  0.00     0.082 A 
ATOM      8  C   UNL     1     -12.100  15.626  12.042  1.00  0.00     0.279 A 
ATOM      9  C   UNL     1     -11.788  15.106  10.762  1.00  0.00     0.090 A 
ATOM     10  C   UNL     1     -11.814  15.922   9.619  1.00  0.00     0.055 A 
ENDROOT
BRANCH   1  11
ATOM     11  O   UNL     1     -12.169  18.066   8.614  1.00  0.00    -0.506 OA
ATOM     12  H   UNL     1     -12.843  18.742   8.708  1.00  0.00     0.293 HD
ENDBRANCH   1  11
BRANCH   8  13
ATOM     13  N   UNL     1     -12.014  14.811  13.094  1.00  0.00     0.063 N 
ATOM     14  O   UNL     1     -12.972  14.038  13.403  1.00  0.00    -0.258 OA
ATOM     15  O   UNL     1     -11.070  14.803  13.785  1.00  0.00    -0.258 OA
ENDBRANCH   8  13
TORSDOF 2
ENDMDL
MODEL 20
REMARK VINA RESULT:    -4.294      7.738      9.362
REMARK INTER + INTRA:          -4.706
REMARK INTER:                  -4.629
REMARK INTRA:                  -0.077
REMARK UNBOUND:                -0.036
REMARK SMILES O=[N+]([O-])c1ccc(O)c2ncccc12
REMARK SMILES IDX 7 1 9 2 10 3 11 4 12 5 13 6 14 7 4 8 5 9 6 10 8 11 2 13 3 14
REMARK SMILES IDX 1 15
REMARK H PARENT 8 12
REMARK Flexibility Score: inf
ROOT
ATOM      1  C   UNL     1     -12.776  14.249  12.329  1.00  0.00     0.142 A 
ATOM      2  C   UNL     1     -12.462  15.311  11.458  1.00  0.00     0.119 A 
ATOM      3  N   UNL     1     -12.550  15.112  10.116  1.00  0.00    -0.252 NA
ATOM      4  C   UNL     1     -12.266  16.075   9.207  1.00  0.00     0.112 A 
ATOM      5  C   UNL     1     -11.867  17.347   9.644  1.00  0.00     0.021 A 
ATOM      6  C   UNL     1     -11.775  17.598  11.025  1.00  0.00     0.019 A 
ATOM      7  C   UNL     1     -12.058  16.579  11.970  1.00  0.00     0.082 A 
ATOM      8  C   UNL     1     -11.964  16.769  13.380  1.00  0.00     0.279 A 
ATOM      9  C   UNL     1     -12.297  15.690  14.236  1.00  0.00     0.090 A 
ATOM     10  C   UNL     1     -12.695  14.446  13.718  1.00  0.00     0.055 A 
ENDROOT
BRANCH   1  11
ATOM     11  O   UNL     1     -13.153  13.038  11.836  1.00  0.00    -0.506 OA
ATOM     12  H   UNL     1     -13.831  13.162  11.169  1.00  0.00     0.293 HD
ENDBRANCH   1  11
BRANCH   8  13
ATOM     13  N   UNL     1     -11.550  17.909  13.933  1.00  0.00     0.063 N 
ATOM     14  O   UNL     1     -10.341  18.063  14.289  1.00  0.00    -0.258 OA
ATOM     15  O   UNL     1     -12.289  18.792  14.140  1.00  0.00    -0.258 OA
ENDBRANCH   8  13
TORSDOF 2
ENDMDL
