MODEL 1
REMARK VINA RESULT:    -5.766      0.000      0.000
REMARK INTER + INTRA:          -7.957
REMARK INTER:                  -7.114
REMARK INTRA:                  -0.843
REMARK UNBOUND:                -0.843
REMARK SMILES N#Cc1ccccc1-c1cc(-c2ccccn2)cn(-c2ccccc2)c1=O
REMARK SMILES IDX 8 1 7 2 6 3 5 4 4 5 3 6 9 7 27 8 26 9 19 10 18 11 10 12
REMARK SMILES IDX 11 13 20 14 21 15 25 16 22 17 24 18 23 19 12 20 13 21 17 22
REMARK SMILES IDX 14 23 16 24 15 25 2 26 1 27
REMARK H PARENT
REMARK Flexibility Score: inf
ROOT
ATOM      1  C   UNL     1     -13.030  15.532  12.033  1.00  0.00     0.005 A 
ATOM      2  C   UNL     1     -11.819  15.349  11.322  1.00  0.00     0.010 A 
ATOM      3  C   UNL     1     -11.760  15.529   9.930  1.00  0.00     0.001 A 
ATOM      4  C   UNL     1     -12.917  15.880   9.218  1.00  0.00     0.001 A 
ATOM      5  C   UNL     1     -14.136  16.051   9.898  1.00  0.00     0.020 A 
ATOM      6  C   UNL     1     -14.202  15.888  11.302  1.00  0.00     0.060 A 
ENDROOT
BRANCH   1   7
ATOM      7  C   UNL     1     -13.015  15.369  13.455  1.00  0.00     0.050 A 
ATOM      8  O   UNL     1     -13.549  13.134  13.345  1.00  0.00    -0.268 OA
ATOM      9  C   UNL     1     -13.301  14.126  14.076  1.00  0.00     0.263 A 
ATOM     10  N   UNL     1     -13.279  13.996  15.448  1.00  0.00    -0.283 N 
ATOM     11  C   UNL     1     -12.962  15.070  16.241  1.00  0.00     0.105 A 
ATOM     12  C   UNL     1     -12.700  16.467  14.285  1.00  0.00     0.026 A 
ATOM     13  C   UNL     1     -12.657  16.331  15.686  1.00  0.00     0.018 A 
BRANCH  10  14
ATOM     14  C   UNL     1     -13.564  12.787  16.049  1.00  0.00     0.049 A 
ATOM     15  C   UNL     1     -12.655  12.203  16.964  1.00  0.00     0.027 A 
ATOM     16  C   UNL     1     -14.777  12.108  15.780  1.00  0.00     0.027 A 
ATOM     17  C   UNL     1     -12.959  10.992  17.611  1.00  0.00     0.002 A 
ATOM     18  C   UNL     1     -15.081  10.893  16.421  1.00  0.00     0.002 A 
ATOM     19  C   UNL     1     -14.173  10.339  17.342  1.00  0.00     0.000 A 
ENDBRANCH  10  14
BRANCH  13  20
ATOM     20  C   UNL     1     -12.311  17.434  16.502  1.00  0.00     0.072 A 
ATOM     21  C   UNL     1     -11.653  18.572  15.988  1.00  0.00     0.029 A 
ATOM     22  N   UNL     1     -12.622  17.397  17.828  1.00  0.00    -0.256 NA
ATOM     23  C   UNL     1     -11.333  19.636  16.852  1.00  0.00     0.004 A 
ATOM     24  C   UNL     1     -12.340  18.413  18.684  1.00  0.00     0.111 A 
ATOM     25  C   UNL     1     -11.682  19.563  18.212  1.00  0.00     0.020 A 
ENDBRANCH  13  20
ENDBRANCH   1   7
BRANCH   6  26
ATOM     26  C   UNL     1     -15.355  16.101  11.882  1.00  0.00     0.100 C 
ATOM     27  N   UNL     1     -16.367  16.291  12.391  1.00  0.00    -0.192 NA
ENDBRANCH   6  26
TORSDOF 4
ENDMDL
MODEL 2
REMARK VINA RESULT:    -5.720      1.922      5.406
REMARK INTER + INTRA:          -7.901
REMARK INTER:                  -6.781
REMARK INTRA:                  -1.120
REMARK UNBOUND:                -0.843
REMARK SMILES N#Cc1ccccc1-c1cc(-c2ccccn2)cn(-c2ccccc2)c1=O
REMARK SMILES IDX 8 1 7 2 6 3 5 4 4 5 3 6 9 7 27 8 26 9 19 10 18 11 10 12
REMARK SMILES IDX 11 13 20 14 21 15 25 16 22 17 24 18 23 19 12 20 13 21 17 22
REMARK SMILES IDX 14 23 16 24 15 25 2 26 1 27
REMARK H PARENT
REMARK Flexibility Score: inf
ROOT
ATOM      1  C   UNL     1     -12.872  18.063  16.873  1.00  0.00     0.005 A 
ATOM      2  C   UNL     1     -11.692  18.585  17.456  1.00  0.00     0.010 A 
ATOM      3  C   UNL     1     -11.731  19.726  18.275  1.00  0.00     0.001 A 
ATOM      4  C   UNL     1     -12.950  20.378  18.513  1.00  0.00     0.001 A 
ATOM      5  C   UNL     1     -14.133  19.890  17.931  1.00  0.00     0.020 A 
ATOM      6  C   UNL     1     -14.108  18.732  17.119  1.00  0.00     0.060 A 
ENDROOT
BRANCH   1   7
ATOM      7  C   UNL     1     -12.771  16.876  16.079  1.00  0.00     0.050 A 
ATOM      8  O   UNL     1     -13.166  15.479  17.863  1.00  0.00    -0.268 OA
ATOM      9  C   UNL     1     -12.915  15.580  16.635  1.00  0.00     0.263 A 
ATOM     10  N   UNL     1     -12.813  14.453  15.847  1.00  0.00    -0.283 N 
ATOM     11  C   UNL     1     -12.585  14.569  14.499  1.00  0.00     0.105 A 
ATOM     12  C   UNL     1     -12.527  16.979  14.692  1.00  0.00     0.026 A 
ATOM     13  C   UNL     1     -12.443  15.830  13.882  1.00  0.00     0.018 A 
BRANCH  10  14
ATOM     14  C   UNL     1     -12.947  13.193  16.393  1.00  0.00     0.049 A 
ATOM     15  C   UNL     1     -11.901  12.619  17.154  1.00  0.00     0.027 A 
ATOM     16  C   UNL     1     -14.140  12.449  16.221  1.00  0.00     0.027 A 
ATOM     17  C   UNL     1     -12.048  11.353  17.747  1.00  0.00     0.002 A 
ATOM     18  C   UNL     1     -14.288  11.179  16.809  1.00  0.00     0.002 A 
ATOM     19  C   UNL     1     -13.244  10.634  17.577  1.00  0.00     0.000 A 
ENDBRANCH  10  14
BRANCH  13  20
ATOM     20  C   UNL     1     -12.228  15.950  12.489  1.00  0.00     0.072 A 
ATOM     21  C   UNL     1     -12.037  17.201  11.863  1.00  0.00     0.029 A 
ATOM     22  N   UNL     1     -12.204  14.823  11.724  1.00  0.00    -0.256 NA
ATOM     23  C   UNL     1     -11.830  17.255  10.472  1.00  0.00     0.004 A 
ATOM     24  C   UNL     1     -11.992  14.840  10.383  1.00  0.00     0.111 A 
ATOM     25  C   UNL     1     -11.801  16.066   9.722  1.00  0.00     0.020 A 
ENDBRANCH  13  20
ENDBRANCH   1   7
BRANCH   6  26
ATOM     26  C   UNL     1     -15.247  18.303  16.640  1.00  0.00     0.100 C 
ATOM     27  N   UNL     1     -16.246  17.923  16.219  1.00  0.00    -0.192 NA
ENDBRANCH   6  26
TORSDOF 4
ENDMDL
MODEL 3
REMARK VINA RESULT:    -5.683      2.221      5.811
REMARK INTER + INTRA:          -7.854
REMARK INTER:                  -6.711
REMARK INTRA:                  -1.144
REMARK UNBOUND:                -0.843
REMARK SMILES N#Cc1ccccc1-c1cc(-c2ccccn2)cn(-c2ccccc2)c1=O
REMARK SMILES IDX 8 1 7 2 6 3 5 4 4 5 3 6 9 7 27 8 26 9 19 10 18 11 10 12
REMARK SMILES IDX 11 13 20 14 21 15 25 16 22 17 24 18 23 19 12 20 13 21 17 22
REMARK SMILES IDX 14 23 16 24 15 25 2 26 1 27
REMARK H PARENT
REMARK Flexibility Score: inf
ROOT
ATOM      1  C   UNL     1     -13.109  17.199  18.255  1.00  0.00     0.005 A 
ATOM      2  C   UNL     1     -12.003  17.899  18.797  1.00  0.00     0.010 A 
ATOM      3  C   UNL     1     -12.188  18.964  19.695  1.00  0.00     0.001 A 
ATOM      4  C   UNL     1     -13.485  19.361  20.054  1.00  0.00     0.001 A 
ATOM      5  C   UNL     1     -14.599  18.695  19.516  1.00  0.00     0.020 A 
ATOM      6  C   UNL     1     -14.423  17.610  18.625  1.00  0.00     0.060 A 
ENDROOT
BRANCH   1   7
ATOM      7  C   UNL     1     -12.852  16.099  17.375  1.00  0.00     0.050 A 
ATOM      8  O   UNL     1     -12.948  14.542  19.065  1.00  0.00    -0.268 OA
ATOM      9  C   UNL     1     -12.766  14.763  17.840  1.00  0.00     0.263 A 
ATOM     10  N   UNL     1     -12.518  13.722  16.971  1.00  0.00    -0.283 N 
ATOM     11  C   UNL     1     -12.366  13.962  15.628  1.00  0.00     0.105 A 
ATOM     12  C   UNL     1     -12.684  16.332  15.992  1.00  0.00     0.026 A 
ATOM     13  C   UNL     1     -12.452  15.268  15.099  1.00  0.00     0.018 A 
BRANCH  10  14
ATOM     14  C   UNL     1     -12.429  12.423  17.429  1.00  0.00     0.049 A 
ATOM     15  C   UNL     1     -13.508  11.523  17.263  1.00  0.00     0.027 A 
ATOM     16  C   UNL     1     -11.251  11.954  18.060  1.00  0.00     0.027 A 
ATOM     17  C   UNL     1     -13.406  10.187  17.690  1.00  0.00     0.002 A 
ATOM     18  C   UNL     1     -11.149  10.619  18.493  1.00  0.00     0.002 A 
ATOM     19  C   UNL     1     -12.225   9.734  18.302  1.00  0.00     0.000 A 
ENDBRANCH  10  14
BRANCH  13  20
ATOM     20  C   UNL     1     -12.315  15.513  13.713  1.00  0.00     0.072 A 
ATOM     21  C   UNL     1     -11.840  16.745  13.211  1.00  0.00     0.029 A 
ATOM     22  N   UNL     1     -12.653  14.531  12.832  1.00  0.00    -0.256 NA
ATOM     23  C   UNL     1     -11.728  16.928  11.820  1.00  0.00     0.004 A 
ATOM     24  C   UNL     1     -12.543  14.672  11.485  1.00  0.00     0.111 A 
ATOM     25  C   UNL     1     -12.077  15.883  10.945  1.00  0.00     0.020 A 
ENDBRANCH  13  20
ENDBRANCH   1   7
BRANCH   6  26
ATOM     26  C   UNL     1     -15.499  17.004  18.190  1.00  0.00     0.100 C 
ATOM     27  N   UNL     1     -16.443  16.471  17.813  1.00  0.00    -0.192 NA
ENDBRANCH   6  26
TORSDOF 4
ENDMDL
MODEL 4
REMARK VINA RESULT:    -5.680      2.437      7.679
REMARK INTER + INTRA:          -7.851
REMARK INTER:                  -7.054
REMARK INTRA:                  -0.797
REMARK UNBOUND:                -0.843
REMARK SMILES N#Cc1ccccc1-c1cc(-c2ccccn2)cn(-c2ccccc2)c1=O
REMARK SMILES IDX 8 1 7 2 6 3 5 4 4 5 3 6 9 7 27 8 26 9 19 10 18 11 10 12
REMARK SMILES IDX 11 13 20 14 21 15 25 16 22 17 24 18 23 19 12 20 13 21 17 22
REMARK SMILES IDX 14 23 16 24 15 25 2 26 1 27
REMARK H PARENT
REMARK Flexibility Score: inf
ROOT
ATOM      1  C   UNL     1     -13.493  12.283  17.825  1.00  0.00     0.005 A 
ATOM      2  C   UNL     1     -14.703  12.262  18.560  1.00  0.00     0.010 A 
ATOM      3  C   UNL     1     -14.844  11.458  19.703  1.00  0.00     0.001 A 
ATOM      4  C   UNL     1     -13.782  10.643  20.124  1.00  0.00     0.001 A 
ATOM      5  C   UNL     1     -12.576  10.632  19.401  1.00  0.00     0.020 A 
ATOM      6  C   UNL     1     -12.418  11.452  18.259  1.00  0.00     0.060 A 
ENDROOT
BRANCH   1   7
ATOM      7  C   UNL     1     -13.400  13.152  16.691  1.00  0.00     0.050 A 
ATOM      8  O   UNL     1     -12.337  14.814  17.875  1.00  0.00    -0.268 OA
ATOM      9  C   UNL     1     -12.814  14.440  16.772  1.00  0.00     0.263 A 
ATOM     10  N   UNL     1     -12.737  15.257  15.664  1.00  0.00    -0.283 N 
ATOM     11  C   UNL     1     -13.216  14.828  14.452  1.00  0.00     0.105 A 
ATOM     12  C   UNL     1     -13.898  12.728  15.439  1.00  0.00     0.026 A 
ATOM     13  C   UNL     1     -13.801  13.553  14.302  1.00  0.00     0.018 A 
BRANCH  10  14
ATOM     14  C   UNL     1     -12.170  16.513  15.748  1.00  0.00     0.049 A 
ATOM     15  C   UNL     1     -11.127  16.895  14.872  1.00  0.00     0.027 A 
ATOM     16  C   UNL     1     -12.628  17.455  16.701  1.00  0.00     0.027 A 
ATOM     17  C   UNL     1     -10.575  18.187  14.925  1.00  0.00     0.002 A 
ATOM     18  C   UNL     1     -12.074  18.747  16.761  1.00  0.00     0.002 A 
ATOM     19  C   UNL     1     -11.051  19.115  15.868  1.00  0.00     0.000 A 
ENDBRANCH  10  14
BRANCH  13  20
ATOM     20  C   UNL     1     -14.278  13.102  13.048  1.00  0.00     0.072 A 
ATOM     21  C   UNL     1     -15.594  12.621  12.873  1.00  0.00     0.029 A 
ATOM     22  N   UNL     1     -13.441  13.131  11.974  1.00  0.00    -0.256 NA
ATOM     23  C   UNL     1     -16.007  12.184  11.601  1.00  0.00     0.004 A 
ATOM     24  C   UNL     1     -13.814  12.731  10.731  1.00  0.00     0.111 A 
ATOM     25  C   UNL     1     -15.114  12.243  10.516  1.00  0.00     0.020 A 
ENDBRANCH  13  20
ENDBRANCH   1   7
BRANCH   6  26
ATOM     26  C   UNL     1     -11.258  11.428  17.653  1.00  0.00     0.100 C 
ATOM     27  N   UNL     1     -10.239  11.404  17.124  1.00  0.00    -0.192 NA
ENDBRANCH   6  26
TORSDOF 4
ENDMDL
MODEL 5
REMARK VINA RESULT:    -5.676      2.090      5.600
REMARK INTER + INTRA:          -7.846
REMARK INTER:                  -6.945
REMARK INTRA:                  -0.901
REMARK UNBOUND:                -0.843
REMARK SMILES N#Cc1ccccc1-c1cc(-c2ccccn2)cn(-c2ccccc2)c1=O
REMARK SMILES IDX 8 1 7 2 6 3 5 4 4 5 3 6 9 7 27 8 26 9 19 10 18 11 10 12
REMARK SMILES IDX 11 13 20 14 21 15 25 16 22 17 24 18 23 19 12 20 13 21 17 22
REMARK SMILES IDX 14 23 16 24 15 25 2 26 1 27
REMARK H PARENT
REMARK Flexibility Score: inf
ROOT
ATOM      1  C   UNL     1     -11.918  16.908  15.411  1.00  0.00     0.005 A 
ATOM      2  C   UNL     1     -10.706  17.211  14.742  1.00  0.00     0.010 A 
ATOM      3  C   UNL     1     -10.079  18.457  14.908  1.00  0.00     0.001 A 
ATOM      4  C   UNL     1     -10.661  19.433  15.731  1.00  0.00     0.001 A 
ATOM      5  C   UNL     1     -11.872  19.163  16.392  1.00  0.00     0.020 A 
ATOM      6  C   UNL     1     -12.503  17.905  16.247  1.00  0.00     0.060 A 
ENDROOT
BRANCH   1   7
ATOM      7  C   UNL     1     -12.487  15.607  15.230  1.00  0.00     0.050 A 
ATOM      8  O   UNL     1     -13.162  16.048  13.076  1.00  0.00    -0.268 OA
ATOM      9  C   UNL     1     -13.123  15.222  14.023  1.00  0.00     0.263 A 
ATOM     10  N   UNL     1     -13.663  13.962  13.875  1.00  0.00    -0.283 N 
ATOM     11  C   UNL     1     -13.578  13.047  14.894  1.00  0.00     0.105 A 
ATOM     12  C   UNL     1     -12.416  14.658  16.274  1.00  0.00     0.026 A 
ATOM     13  C   UNL     1     -12.948  13.364  16.117  1.00  0.00     0.018 A 
BRANCH  10  14
ATOM     14  C   UNL     1     -14.287  13.593  12.700  1.00  0.00     0.049 A 
ATOM     15  C   UNL     1     -13.532  13.139  11.592  1.00  0.00     0.027 A 
ATOM     16  C   UNL     1     -15.697  13.643  12.579  1.00  0.00     0.027 A 
ATOM     17  C   UNL     1     -14.166  12.722  10.408  1.00  0.00     0.002 A 
ATOM     18  C   UNL     1     -16.333  13.232  11.393  1.00  0.00     0.002 A 
ATOM     19  C   UNL     1     -15.567  12.766  10.310  1.00  0.00     0.000 A 
ENDBRANCH  10  14
BRANCH  13  20
ATOM     20  C   UNL     1     -12.843  12.414  17.160  1.00  0.00     0.072 A 
ATOM     21  C   UNL     1     -11.982  12.603  18.264  1.00  0.00     0.029 A 
ATOM     22  N   UNL     1     -13.594  11.280  17.100  1.00  0.00    -0.256 NA
ATOM     23  C   UNL     1     -11.920  11.621  19.270  1.00  0.00     0.004 A 
ATOM     24  C   UNL     1     -13.568  10.321  18.061  1.00  0.00     0.111 A 
ATOM     25  C   UNL     1     -12.722  10.470  19.174  1.00  0.00     0.020 A 
ENDBRANCH  13  20
ENDBRANCH   1   7
BRANCH   6  26
ATOM     26  C   UNL     1     -13.606  17.700  16.919  1.00  0.00     0.100 C 
ATOM     27  N   UNL     1     -14.574  17.515  17.509  1.00  0.00    -0.192 NA
ENDBRANCH   6  26
TORSDOF 4
ENDMDL
MODEL 6
REMARK VINA RESULT:    -5.659      2.145      6.489
REMARK INTER + INTRA:          -7.825
REMARK INTER:                  -6.755
REMARK INTRA:                  -1.070
REMARK UNBOUND:                -0.843
REMARK SMILES N#Cc1ccccc1-c1cc(-c2ccccn2)cn(-c2ccccc2)c1=O
REMARK SMILES IDX 8 1 7 2 6 3 5 4 4 5 3 6 9 7 27 8 26 9 19 10 18 11 10 12
REMARK SMILES IDX 11 13 20 14 21 15 25 16 22 17 24 18 23 19 12 20 13 21 17 22
REMARK SMILES IDX 14 23 16 24 15 25 2 26 1 27
REMARK H PARENT
REMARK Flexibility Score: inf
ROOT
ATOM      1  C   UNL     1     -12.477  12.249  17.262  1.00  0.00     0.005 A 
ATOM      2  C   UNL     1     -11.238  11.769  17.752  1.00  0.00     0.010 A 
ATOM      3  C   UNL     1     -11.078  10.424  18.127  1.00  0.00     0.001 A 
ATOM      4  C   UNL     1     -12.162   9.537  18.037  1.00  0.00     0.001 A 
ATOM      5  C   UNL     1     -13.407   9.993  17.571  1.00  0.00     0.020 A 
ATOM      6  C   UNL     1     -13.573  11.341  17.174  1.00  0.00     0.060 A 
ENDROOT
BRANCH   1   7
ATOM      7  C   UNL     1     -12.564  13.621  16.862  1.00  0.00     0.050 A 
ATOM      8  O   UNL     1     -12.931  14.369  19.006  1.00  0.00    -0.268 OA
ATOM      9  C   UNL     1     -12.811  14.664  17.789  1.00  0.00     0.263 A 
ATOM     10  N   UNL     1     -12.889  15.978  17.377  1.00  0.00    -0.283 N 
ATOM     11  C   UNL     1     -12.711  16.301  16.055  1.00  0.00     0.105 A 
ATOM     12  C   UNL     1     -12.392  13.968  15.504  1.00  0.00     0.026 A 
ATOM     13  C   UNL     1     -12.451  15.311  15.084  1.00  0.00     0.018 A 
BRANCH  10  14
ATOM     14  C   UNL     1     -13.136  16.990  18.282  1.00  0.00     0.049 A 
ATOM     15  C   UNL     1     -12.073  17.753  18.821  1.00  0.00     0.027 A 
ATOM     16  C   UNL     1     -14.458  17.302  18.681  1.00  0.00     0.027 A 
ATOM     17  C   UNL     1     -12.322  18.813  19.711  1.00  0.00     0.002 A 
ATOM     18  C   UNL     1     -14.710  18.358  19.576  1.00  0.00     0.002 A 
ATOM     19  C   UNL     1     -13.641  19.118  20.086  1.00  0.00     0.000 A 
ENDBRANCH  10  14
BRANCH  13  20
ATOM     20  C   UNL     1     -12.248  15.646  13.724  1.00  0.00     0.072 A 
ATOM     21  C   UNL     1     -11.857  16.941  13.320  1.00  0.00     0.029 A 
ATOM     22  N   UNL     1     -12.437  14.690  12.773  1.00  0.00    -0.256 NA
ATOM     23  C   UNL     1     -11.673  17.213  11.951  1.00  0.00     0.004 A 
ATOM     24  C   UNL     1     -12.254  14.917  11.446  1.00  0.00     0.111 A 
ATOM     25  C   UNL     1     -11.868  16.193  11.003  1.00  0.00     0.020 A 
ENDBRANCH  13  20
ENDBRANCH   1   7
BRANCH   6  26
ATOM     26  C   UNL     1     -14.744  11.695  16.710  1.00  0.00     0.100 C 
ATOM     27  N   UNL     1     -15.771  12.005  16.300  1.00  0.00    -0.192 NA
ENDBRANCH   6  26
TORSDOF 4
ENDMDL
MODEL 7
REMARK VINA RESULT:    -5.654      1.783      5.840
REMARK INTER + INTRA:          -7.819
REMARK INTER:                  -6.655
REMARK INTRA:                  -1.163
REMARK UNBOUND:                -0.843
REMARK SMILES N#Cc1ccccc1-c1cc(-c2ccccn2)cn(-c2ccccc2)c1=O
REMARK SMILES IDX 8 1 7 2 6 3 5 4 4 5 3 6 9 7 27 8 26 9 19 10 18 11 10 12
REMARK SMILES IDX 11 13 20 14 21 15 25 16 22 17 24 18 23 19 12 20 13 21 17 22
REMARK SMILES IDX 14 23 16 24 15 25 2 26 1 27
REMARK H PARENT
REMARK Flexibility Score: inf
ROOT
ATOM      1  C   UNL     1     -12.652  12.962  18.070  1.00  0.00     0.005 A 
ATOM      2  C   UNL     1     -11.426  12.275  18.251  1.00  0.00     0.010 A 
ATOM      3  C   UNL     1     -11.379  11.040  18.919  1.00  0.00     0.001 A 
ATOM      4  C   UNL     1     -12.555  10.477  19.437  1.00  0.00     0.001 A 
ATOM      5  C   UNL     1     -13.781  11.147  19.286  1.00  0.00     0.020 A 
ATOM      6  C   UNL     1     -13.843  12.382  18.600  1.00  0.00     0.060 A 
ENDROOT
BRANCH   1   7
ATOM      7  C   UNL     1     -12.638  14.198  17.348  1.00  0.00     0.050 A 
ATOM      8  O   UNL     1     -12.946  13.173  15.311  1.00  0.00    -0.268 OA
ATOM      9  C   UNL     1     -12.778  14.251  15.938  1.00  0.00     0.263 A 
ATOM     10  N   UNL     1     -12.763  15.455  15.267  1.00  0.00    -0.283 N 
ATOM     11  C   UNL     1     -12.626  16.632  15.959  1.00  0.00     0.105 A 
ATOM     12  C   UNL     1     -12.490  15.417  18.045  1.00  0.00     0.026 A 
ATOM     13  C   UNL     1     -12.494  16.649  17.363  1.00  0.00     0.018 A 
BRANCH  10  14
ATOM     14  C   UNL     1     -12.893  15.502  13.894  1.00  0.00     0.049 A 
ATOM     15  C   UNL     1     -11.760  15.372  13.055  1.00  0.00     0.027 A 
ATOM     16  C   UNL     1     -14.163  15.665  13.288  1.00  0.00     0.027 A 
ATOM     17  C   UNL     1     -11.892  15.377  11.655  1.00  0.00     0.002 A 
ATOM     18  C   UNL     1     -14.298  15.677  11.888  1.00  0.00     0.002 A 
ATOM     19  C   UNL     1     -13.162  15.527  11.072  1.00  0.00     0.000 A 
ENDBRANCH  10  14
BRANCH  13  20
ATOM     20  C   UNL     1     -12.373  17.864  18.079  1.00  0.00     0.072 A 
ATOM     21  C   UNL     1     -12.603  17.943  19.470  1.00  0.00     0.029 A 
ATOM     22  N   UNL     1     -12.026  18.995  17.406  1.00  0.00    -0.256 NA
ATOM     23  C   UNL     1     -12.470  19.181  20.125  1.00  0.00     0.004 A 
ATOM     24  C   UNL     1     -11.875  20.202  18.011  1.00  0.00     0.111 A 
ATOM     25  C   UNL     1     -12.097  20.323  19.393  1.00  0.00     0.020 A 
ENDBRANCH  13  20
ENDBRANCH   1   7
BRANCH   6  26
ATOM     26  C   UNL     1     -15.019  12.937  18.456  1.00  0.00     0.100 C 
ATOM     27  N   UNL     1     -16.050  13.425  18.326  1.00  0.00    -0.192 NA
ENDBRANCH   6  26
TORSDOF 4
ENDMDL
MODEL 8
REMARK VINA RESULT:    -5.597      1.407      5.273
REMARK INTER + INTRA:          -7.748
REMARK INTER:                  -6.600
REMARK INTRA:                  -1.148
REMARK UNBOUND:                -0.843
REMARK SMILES N#Cc1ccccc1-c1cc(-c2ccccn2)cn(-c2ccccc2)c1=O
REMARK SMILES IDX 8 1 7 2 6 3 5 4 4 5 3 6 9 7 27 8 26 9 19 10 18 11 10 12
REMARK SMILES IDX 11 13 20 14 21 15 25 16 22 17 24 18 23 19 12 20 13 21 17 22
REMARK SMILES IDX 14 23 16 24 15 25 2 26 1 27
REMARK H PARENT
REMARK Flexibility Score: inf
ROOT
ATOM      1  C   UNL     1     -13.177  15.922  11.731  1.00  0.00     0.005 A 
ATOM      2  C   UNL     1     -11.944  15.734  11.059  1.00  0.00     0.010 A 
ATOM      3  C   UNL     1     -11.856  15.844   9.661  1.00  0.00     0.001 A 
ATOM      4  C   UNL     1     -13.003  16.126   8.905  1.00  0.00     0.001 A 
ATOM      5  C   UNL     1     -14.242  16.298   9.546  1.00  0.00     0.020 A 
ATOM      6  C   UNL     1     -14.339  16.207  10.954  1.00  0.00     0.060 A 
ENDROOT
BRANCH   1   7
ATOM      7  C   UNL     1     -13.194  15.833  13.159  1.00  0.00     0.050 A 
ATOM      8  O   UNL     1     -12.895  18.096  13.443  1.00  0.00    -0.268 OA
ATOM      9  C   UNL     1     -13.031  16.972  13.989  1.00  0.00     0.263 A 
ATOM     10  N   UNL     1     -13.052  16.859  15.363  1.00  0.00    -0.283 N 
ATOM     11  C   UNL     1     -13.248  15.636  15.955  1.00  0.00     0.105 A 
ATOM     12  C   UNL     1     -13.385  14.581  13.783  1.00  0.00     0.026 A 
ATOM     13  C   UNL     1     -13.427  14.466  15.186  1.00  0.00     0.018 A 
BRANCH  10  14
ATOM     14  C   UNL     1     -12.888  17.968  16.167  1.00  0.00     0.049 A 
ATOM     15  C   UNL     1     -14.010  18.669  16.670  1.00  0.00     0.027 A 
ATOM     16  C   UNL     1     -11.595  18.424  16.522  1.00  0.00     0.027 A 
ATOM     17  C   UNL     1     -13.849  19.774  17.524  1.00  0.00     0.002 A 
ATOM     18  C   UNL     1     -11.430  19.534  17.372  1.00  0.00     0.002 A 
ATOM     19  C   UNL     1     -12.558  20.205  17.877  1.00  0.00     0.000 A 
ENDBRANCH  10  14
BRANCH  13  20
ATOM     20  C   UNL     1     -13.648  13.209  15.796  1.00  0.00     0.072 A 
ATOM     21  C   UNL     1     -14.721  12.370  15.421  1.00  0.00     0.029 A 
ATOM     22  N   UNL     1     -12.800  12.792  16.777  1.00  0.00    -0.256 NA
ATOM     23  C   UNL     1     -14.890  11.132  16.068  1.00  0.00     0.004 A 
ATOM     24  C   UNL     1     -12.927  11.596  17.409  1.00  0.00     0.111 A 
ATOM     25  C   UNL     1     -13.984  10.735  17.068  1.00  0.00     0.020 A 
ENDBRANCH  13  20
ENDBRANCH   1   7
BRANCH   6  26
ATOM     26  C   UNL     1     -15.512  16.418  11.495  1.00  0.00     0.100 C 
ATOM     27  N   UNL     1     -16.543  16.605  11.966  1.00  0.00    -0.192 NA
ENDBRANCH   6  26
TORSDOF 4
ENDMDL
MODEL 9
REMARK VINA RESULT:    -5.593      3.285      6.248
REMARK INTER + INTRA:          -7.744
REMARK INTER:                  -6.644
REMARK INTRA:                  -1.100
REMARK UNBOUND:                -0.843
REMARK SMILES N#Cc1ccccc1-c1cc(-c2ccccn2)cn(-c2ccccc2)c1=O
REMARK SMILES IDX 8 1 7 2 6 3 5 4 4 5 3 6 9 7 27 8 26 9 19 10 18 11 10 12
REMARK SMILES IDX 11 13 20 14 21 15 25 16 22 17 24 18 23 19 12 20 13 21 17 22
REMARK SMILES IDX 14 23 16 24 15 25 2 26 1 27
REMARK H PARENT
REMARK Flexibility Score: inf
ROOT
ATOM      1  C   UNL     1     -14.381  15.082  11.580  1.00  0.00     0.005 A 
ATOM      2  C   UNL     1     -15.278  14.156  12.167  1.00  0.00     0.010 A 
ATOM      3  C   UNL     1     -15.308  12.813  11.754  1.00  0.00     0.001 A 
ATOM      4  C   UNL     1     -14.453  12.374  10.732  1.00  0.00     0.001 A 
ATOM      5  C   UNL     1     -13.566  13.277  10.121  1.00  0.00     0.020 A 
ATOM      6  C   UNL     1     -13.516  14.627  10.542  1.00  0.00     0.060 A 
ENDROOT
BRANCH   1   7
ATOM      7  C   UNL     1     -14.374  16.426  12.071  1.00  0.00     0.050 A 
ATOM      8  O   UNL     1     -12.796  15.978  13.684  1.00  0.00    -0.268 OA
ATOM      9  C   UNL     1     -13.557  16.830  13.158  1.00  0.00     0.263 A 
ATOM     10  N   UNL     1     -13.568  18.131  13.610  1.00  0.00    -0.283 N 
ATOM     11  C   UNL     1     -14.365  19.069  13.003  1.00  0.00     0.105 A 
ATOM     12  C   UNL     1     -15.196  17.400  11.463  1.00  0.00     0.026 A 
ATOM     13  C   UNL     1     -15.194  18.735  11.910  1.00  0.00     0.018 A 
BRANCH  10  14
ATOM     14  C   UNL     1     -12.776  18.519  14.672  1.00  0.00     0.049 A 
ATOM     15  C   UNL     1     -11.389  18.738  14.496  1.00  0.00     0.027 A 
ATOM     16  C   UNL     1     -13.332  18.724  15.958  1.00  0.00     0.027 A 
ATOM     17  C   UNL     1     -10.585  19.173  15.564  1.00  0.00     0.002 A 
ATOM     18  C   UNL     1     -12.528  19.154  17.030  1.00  0.00     0.002 A 
ATOM     19  C   UNL     1     -11.155  19.384  16.830  1.00  0.00     0.000 A 
ENDBRANCH  10  14
BRANCH  13  20
ATOM     20  C   UNL     1     -16.000  19.706  11.272  1.00  0.00     0.072 A 
ATOM     21  C   UNL     1     -17.132  19.355  10.503  1.00  0.00     0.029 A 
ATOM     22  N   UNL     1     -15.676  21.022  11.400  1.00  0.00    -0.256 NA
ATOM     23  C   UNL     1     -17.893  20.368   9.890  1.00  0.00     0.004 A 
ATOM     24  C   UNL     1     -16.399  22.023  10.833  1.00  0.00     0.111 A 
ATOM     25  C   UNL     1     -17.530  21.716  10.058  1.00  0.00     0.020 A 
ENDBRANCH  13  20
ENDBRANCH   1   7
BRANCH   6  26
ATOM     26  C   UNL     1     -12.641  15.409   9.963  1.00  0.00     0.100 C 
ATOM     27  N   UNL     1     -11.874  16.093   9.451  1.00  0.00    -0.192 NA
ENDBRANCH   6  26
TORSDOF 4
ENDMDL
MODEL 10
REMARK VINA RESULT:    -5.585      2.047      5.372
REMARK INTER + INTRA:          -7.734
REMARK INTER:                  -6.736
REMARK INTRA:                  -0.998
REMARK UNBOUND:                -0.843
REMARK SMILES N#Cc1ccccc1-c1cc(-c2ccccn2)cn(-c2ccccc2)c1=O
REMARK SMILES IDX 8 1 7 2 6 3 5 4 4 5 3 6 9 7 27 8 26 9 19 10 18 11 10 12
REMARK SMILES IDX 11 13 20 14 21 15 25 16 22 17 24 18 23 19 12 20 13 21 17 22
REMARK SMILES IDX 14 23 16 24 15 25 2 26 1 27
REMARK H PARENT
REMARK Flexibility Score: inf
ROOT
ATOM      1  C   UNL     1     -14.285  13.599  12.658  1.00  0.00     0.005 A 
ATOM      2  C   UNL     1     -13.485  13.088  11.606  1.00  0.00     0.010 A 
ATOM      3  C   UNL     1     -14.048  12.750  10.364  1.00  0.00     0.001 A 
ATOM      4  C   UNL     1     -15.428  12.899  10.155  1.00  0.00     0.001 A 
ATOM      5  C   UNL     1     -16.246  13.387  11.188  1.00  0.00     0.020 A 
ATOM      6  C   UNL     1     -15.687  13.747  12.436  1.00  0.00     0.060 A 
ENDROOT
BRANCH   1   7
ATOM      7  C   UNL     1     -13.645  13.959  13.886  1.00  0.00     0.050 A 
ATOM      8  O   UNL     1     -13.210  16.109  13.192  1.00  0.00    -0.268 OA
ATOM      9  C   UNL     1     -13.100  15.250  14.104  1.00  0.00     0.263 A 
ATOM     10  N   UNL     1     -12.489  15.571  15.297  1.00  0.00    -0.283 N 
ATOM     11  C   UNL     1     -12.412  14.646  16.307  1.00  0.00     0.105 A 
ATOM     12  C   UNL     1     -13.549  13.014  14.931  1.00  0.00     0.026 A 
ATOM     13  C   UNL     1     -12.944  13.347  16.159  1.00  0.00     0.018 A 
BRANCH  10  14
ATOM     14  C   UNL     1     -11.954  16.827  15.503  1.00  0.00     0.049 A 
ATOM     15  C   UNL     1     -10.803  17.247  14.794  1.00  0.00     0.027 A 
ATOM     16  C   UNL     1     -12.551  17.731  16.415  1.00  0.00     0.027 A 
ATOM     17  C   UNL     1     -10.279  18.540  14.970  1.00  0.00     0.002 A 
ATOM     18  C   UNL     1     -12.024  19.023  16.597  1.00  0.00     0.002 A 
ATOM     19  C   UNL     1     -10.892  19.429  15.869  1.00  0.00     0.000 A 
ENDBRANCH  10  14
BRANCH  13  20
ATOM     20  C   UNL     1     -12.882  12.399  17.207  1.00  0.00     0.072 A 
ATOM     21  C   UNL     1     -12.056  12.583  18.338  1.00  0.00     0.029 A 
ATOM     22  N   UNL     1     -13.641  11.272  17.124  1.00  0.00    -0.256 NA
ATOM     23  C   UNL     1     -12.037  11.602  19.347  1.00  0.00     0.004 A 
ATOM     24  C   UNL     1     -13.655  10.314  18.087  1.00  0.00     0.111 A 
ATOM     25  C   UNL     1     -12.846  10.458  19.227  1.00  0.00     0.020 A 
ENDBRANCH  13  20
ENDBRANCH   1   7
BRANCH   6  26
ATOM     26  C   UNL     1     -16.494  14.234  13.344  1.00  0.00     0.100 C 
ATOM     27  N   UNL     1     -17.201  14.665  14.139  1.00  0.00    -0.192 NA
ENDBRANCH   6  26
TORSDOF 4
ENDMDL
MODEL 11
REMARK VINA RESULT:    -5.578      1.833      6.290
REMARK INTER + INTRA:          -7.725
REMARK INTER:                  -6.548
REMARK INTRA:                  -1.176
REMARK UNBOUND:                -0.843
REMARK SMILES N#Cc1ccccc1-c1cc(-c2ccccn2)cn(-c2ccccc2)c1=O
REMARK SMILES IDX 8 1 7 2 6 3 5 4 4 5 3 6 9 7 27 8 26 9 19 10 18 11 10 12
REMARK SMILES IDX 11 13 20 14 21 15 25 16 22 17 24 18 23 19 12 20 13 21 17 22
REMARK SMILES IDX 14 23 16 24 15 25 2 26 1 27
REMARK H PARENT
REMARK Flexibility Score: inf
ROOT
ATOM      1  C   UNL     1     -13.000  17.783  16.951  1.00  0.00     0.005 A 
ATOM      2  C   UNL     1     -11.784  18.411  17.315  1.00  0.00     0.010 A 
ATOM      3  C   UNL     1     -11.778  19.640  17.996  1.00  0.00     0.001 A 
ATOM      4  C   UNL     1     -12.989  20.275  18.311  1.00  0.00     0.001 A 
ATOM      5  C   UNL     1     -14.209  19.681  17.945  1.00  0.00     0.020 A 
ATOM      6  C   UNL     1     -14.227  18.435  17.275  1.00  0.00     0.060 A 
ENDROOT
BRANCH   1   7
ATOM      7  C   UNL     1     -12.940  16.514  16.292  1.00  0.00     0.050 A 
ATOM      8  O   UNL     1     -12.999  17.446  14.189  1.00  0.00    -0.268 OA
ATOM      9  C   UNL     1     -12.956  16.395  14.879  1.00  0.00     0.263 A 
ATOM     10  N   UNL     1     -12.895  15.160  14.269  1.00  0.00    -0.283 N 
ATOM     11  C   UNL     1     -12.801  14.018  15.024  1.00  0.00     0.105 A 
ATOM     12  C   UNL     1     -12.852  15.330  17.056  1.00  0.00     0.026 A 
ATOM     13  C   UNL     1     -12.769  14.068  16.434  1.00  0.00     0.018 A 
BRANCH  10  14
ATOM     14  C   UNL     1     -12.917  15.048  12.894  1.00  0.00     0.049 A 
ATOM     15  C   UNL     1     -14.141  14.889  12.201  1.00  0.00     0.027 A 
ATOM     16  C   UNL     1     -11.720  15.104  12.140  1.00  0.00     0.027 A 
ATOM     17  C   UNL     1     -14.174  14.816  10.797  1.00  0.00     0.002 A 
ATOM     18  C   UNL     1     -11.749  15.025  10.735  1.00  0.00     0.002 A 
ATOM     19  C   UNL     1     -12.977  14.887  10.064  1.00  0.00     0.000 A 
ENDBRANCH  10  14
BRANCH  13  20
ATOM     20  C   UNL     1     -12.652  12.893  17.212  1.00  0.00     0.072 A 
ATOM     21  C   UNL     1     -11.779  12.808  18.319  1.00  0.00     0.029 A 
ATOM     22  N   UNL     1     -13.405  11.806  16.885  1.00  0.00    -0.256 NA
ATOM     23  C   UNL     1     -11.706  11.609  19.053  1.00  0.00     0.004 A 
ATOM     24  C   UNL     1     -13.368  10.640  17.581  1.00  0.00     0.111 A 
ATOM     25  C   UNL     1     -12.510  10.514  18.687  1.00  0.00     0.020 A 
ENDBRANCH  13  20
ENDBRANCH   1   7
BRANCH   6  26
ATOM     26  C   UNL     1     -15.395  17.914  16.997  1.00  0.00     0.100 C 
ATOM     27  N   UNL     1     -16.418  17.452  16.753  1.00  0.00    -0.192 NA
ENDBRANCH   6  26
TORSDOF 4
ENDMDL
MODEL 12
REMARK VINA RESULT:    -5.509      3.407      6.800
REMARK INTER + INTRA:          -7.640
REMARK INTER:                  -6.453
REMARK INTRA:                  -1.187
REMARK UNBOUND:                -0.843
REMARK SMILES N#Cc1ccccc1-c1cc(-c2ccccn2)cn(-c2ccccc2)c1=O
REMARK SMILES IDX 8 1 7 2 6 3 5 4 4 5 3 6 9 7 27 8 26 9 19 10 18 11 10 12
REMARK SMILES IDX 11 13 20 14 21 15 25 16 22 17 24 18 23 19 12 20 13 21 17 22
REMARK SMILES IDX 14 23 16 24 15 25 2 26 1 27
REMARK H PARENT
REMARK Flexibility Score: inf
ROOT
ATOM      1  C   UNL     1     -13.195  18.426  16.417  1.00  0.00     0.005 A 
ATOM      2  C   UNL     1     -14.225  18.046  17.312  1.00  0.00     0.010 A 
ATOM      3  C   UNL     1     -14.038  18.111  18.703  1.00  0.00     0.001 A 
ATOM      4  C   UNL     1     -12.809  18.540  19.227  1.00  0.00     0.001 A 
ATOM      5  C   UNL     1     -11.765  18.906  18.361  1.00  0.00     0.020 A 
ATOM      6  C   UNL     1     -11.949  18.861  16.959  1.00  0.00     0.060 A 
ENDROOT
BRANCH   1   7
ATOM      7  C   UNL     1     -13.460  18.372  15.012  1.00  0.00     0.050 A 
ATOM      8  O   UNL     1     -12.713  16.206  14.811  1.00  0.00    -0.268 OA
ATOM      9  C   UNL     1     -13.184  17.220  14.234  1.00  0.00     0.263 A 
ATOM     10  N   UNL     1     -13.450  17.194  12.882  1.00  0.00    -0.283 N 
ATOM     11  C   UNL     1     -14.007  18.286  12.265  1.00  0.00     0.105 A 
ATOM     12  C   UNL     1     -14.025  19.491  14.361  1.00  0.00     0.026 A 
ATOM     13  C   UNL     1     -14.317  19.460  12.984  1.00  0.00     0.018 A 
BRANCH  10  14
ATOM     14  C   UNL     1     -13.174  16.072  12.127  1.00  0.00     0.049 A 
ATOM     15  C   UNL     1     -14.138  15.048  11.973  1.00  0.00     0.027 A 
ATOM     16  C   UNL     1     -11.926  15.924  11.474  1.00  0.00     0.027 A 
ATOM     17  C   UNL     1     -13.877  13.923  11.171  1.00  0.00     0.002 A 
ATOM     18  C   UNL     1     -11.659  14.797  10.675  1.00  0.00     0.002 A 
ATOM     19  C   UNL     1     -12.639  13.799  10.519  1.00  0.00     0.000 A 
ENDBRANCH  10  14
BRANCH  13  20
ATOM     20  C   UNL     1     -14.909  20.578  12.351  1.00  0.00     0.072 A 
ATOM     21  C   UNL     1     -15.550  21.603  13.083  1.00  0.00     0.029 A 
ATOM     22  N   UNL     1     -14.863  20.671  10.994  1.00  0.00    -0.256 NA
ATOM     23  C   UNL     1     -16.122  22.689  12.395  1.00  0.00     0.004 A 
ATOM     24  C   UNL     1     -15.393  21.713  10.302  1.00  0.00     0.111 A 
ATOM     25  C   UNL     1     -16.042  22.751  10.992  1.00  0.00     0.020 A 
ENDBRANCH  13  20
ENDBRANCH   1   7
BRANCH   6  26
ATOM     26  C   UNL     1     -10.953  19.253  16.205  1.00  0.00     0.100 C 
ATOM     27  N   UNL     1     -10.077  19.598  15.547  1.00  0.00    -0.192 NA
ENDBRANCH   6  26
TORSDOF 4
ENDMDL
MODEL 13
REMARK VINA RESULT:    -5.491      2.342      5.827
REMARK INTER + INTRA:          -7.617
REMARK INTER:                  -6.464
REMARK INTRA:                  -1.154
REMARK UNBOUND:                -0.843
REMARK SMILES N#Cc1ccccc1-c1cc(-c2ccccn2)cn(-c2ccccc2)c1=O
REMARK SMILES IDX 8 1 7 2 6 3 5 4 4 5 3 6 9 7 27 8 26 9 19 10 18 11 10 12
REMARK SMILES IDX 11 13 20 14 21 15 25 16 22 17 24 18 23 19 12 20 13 21 17 22
REMARK SMILES IDX 14 23 16 24 15 25 2 26 1 27
REMARK H PARENT
REMARK Flexibility Score: inf
ROOT
ATOM      1  C   UNL     1     -15.661  13.830  13.620  1.00  0.00     0.005 A 
ATOM      2  C   UNL     1     -16.975  14.041  14.104  1.00  0.00     0.010 A 
ATOM      3  C   UNL     1     -18.095  13.817  13.286  1.00  0.00     0.001 A 
ATOM      4  C   UNL     1     -17.922  13.395  11.959  1.00  0.00     0.001 A 
ATOM      5  C   UNL     1     -16.628  13.195  11.449  1.00  0.00     0.020 A 
ATOM      6  C   UNL     1     -15.494  13.401  12.269  1.00  0.00     0.060 A 
ENDROOT
BRANCH   1   7
ATOM      7  C   UNL     1     -14.564  14.040  14.515  1.00  0.00     0.050 A 
ATOM      8  O   UNL     1     -14.249  16.217  13.841  1.00  0.00    -0.268 OA
ATOM      9  C   UNL     1     -13.868  15.274  14.580  1.00  0.00     0.263 A 
ATOM     10  N   UNL     1     -12.815  15.450  15.452  1.00  0.00    -0.283 N 
ATOM     11  C   UNL     1     -12.431  14.433  16.289  1.00  0.00     0.105 A 
ATOM     12  C   UNL     1     -14.152  13.000  15.376  1.00  0.00     0.026 A 
ATOM     13  C   UNL     1     -13.090  13.185  16.282  1.00  0.00     0.018 A 
BRANCH  10  14
ATOM     14  C   UNL     1     -12.135  16.650  15.508  1.00  0.00     0.049 A 
ATOM     15  C   UNL     1     -12.479  17.631  16.468  1.00  0.00     0.027 A 
ATOM     16  C   UNL     1     -11.068  16.924  14.618  1.00  0.00     0.027 A 
ATOM     17  C   UNL     1     -11.762  18.837  16.558  1.00  0.00     0.002 A 
ATOM     18  C   UNL     1     -10.353  18.133  14.701  1.00  0.00     0.002 A 
ATOM     19  C   UNL     1     -10.697  19.087  15.675  1.00  0.00     0.000 A 
ENDBRANCH  10  14
BRANCH  13  20
ATOM     20  C   UNL     1     -12.707  12.143  17.159  1.00  0.00     0.072 A 
ATOM     21  C   UNL     1     -11.487  12.169  17.870  1.00  0.00     0.029 A 
ATOM     22  N   UNL     1     -13.540  11.078  17.324  1.00  0.00    -0.256 NA
ATOM     23  C   UNL     1     -11.161  11.101  18.726  1.00  0.00     0.004 A 
ATOM     24  C   UNL     1     -13.261  10.039  18.153  1.00  0.00     0.111 A 
ATOM     25  C   UNL     1     -12.056  10.026  18.876  1.00  0.00     0.020 A 
ENDBRANCH  13  20
ENDBRANCH   1   7
BRANCH   6  26
ATOM     26  C   UNL     1     -14.318  13.159  11.749  1.00  0.00     0.100 C 
ATOM     27  N   UNL     1     -13.285  12.943  11.296  1.00  0.00    -0.192 NA
ENDBRANCH   6  26
TORSDOF 4
ENDMDL
MODEL 14
REMARK VINA RESULT:    -5.457      2.491      5.509
REMARK INTER + INTRA:          -7.576
REMARK INTER:                  -6.629
REMARK INTRA:                  -0.947
REMARK UNBOUND:                -0.843
REMARK SMILES N#Cc1ccccc1-c1cc(-c2ccccn2)cn(-c2ccccc2)c1=O
REMARK SMILES IDX 8 1 7 2 6 3 5 4 4 5 3 6 9 7 27 8 26 9 19 10 18 11 10 12
REMARK SMILES IDX 11 13 20 14 21 15 25 16 22 17 24 18 23 19 12 20 13 21 17 22
REMARK SMILES IDX 14 23 16 24 15 25 2 26 1 27
REMARK H PARENT
REMARK Flexibility Score: inf
ROOT
ATOM      1  C   UNL     1     -13.301  15.493  11.366  1.00  0.00     0.005 A 
ATOM      2  C   UNL     1     -12.301  14.964  10.514  1.00  0.00     0.010 A 
ATOM      3  C   UNL     1     -11.732  15.744   9.492  1.00  0.00     0.001 A 
ATOM      4  C   UNL     1     -12.165  17.063   9.292  1.00  0.00     0.001 A 
ATOM      5  C   UNL     1     -13.168  17.606  10.114  1.00  0.00     0.020 A 
ATOM      6  C   UNL     1     -13.735  16.836  11.156  1.00  0.00     0.060 A 
ENDROOT
BRANCH   1   7
ATOM      7  C   UNL     1     -13.814  14.660  12.411  1.00  0.00     0.050 A 
ATOM      8  O   UNL     1     -12.334  15.469  13.975  1.00  0.00    -0.268 OA
ATOM      9  C   UNL     1     -13.276  14.675  13.723  1.00  0.00     0.263 A 
ATOM     10  N   UNL     1     -13.790  13.863  14.711  1.00  0.00    -0.283 N 
ATOM     11  C   UNL     1     -14.849  13.032  14.444  1.00  0.00     0.105 A 
ATOM     12  C   UNL     1     -14.897  13.793  12.149  1.00  0.00     0.026 A 
ATOM     13  C   UNL     1     -15.437  12.977  13.162  1.00  0.00     0.018 A 
BRANCH  10  14
ATOM     14  C   UNL     1     -13.259  13.876  15.985  1.00  0.00     0.049 A 
ATOM     15  C   UNL     1     -13.397  15.014  16.814  1.00  0.00     0.027 A 
ATOM     16  C   UNL     1     -12.579  12.746  16.501  1.00  0.00     0.027 A 
ATOM     17  C   UNL     1     -12.895  15.018  18.127  1.00  0.00     0.002 A 
ATOM     18  C   UNL     1     -12.071  12.748  17.813  1.00  0.00     0.002 A 
ATOM     19  C   UNL     1     -12.235  13.883  18.628  1.00  0.00     0.000 A 
ENDBRANCH  10  14
BRANCH  13  20
ATOM     20  C   UNL     1     -16.541  12.135  12.892  1.00  0.00     0.072 A 
ATOM     21  C   UNL     1     -16.839  11.007  13.688  1.00  0.00     0.029 A 
ATOM     22  N   UNL     1     -17.344  12.419  11.830  1.00  0.00    -0.256 NA
ATOM     23  C   UNL     1     -17.950  10.207  13.366  1.00  0.00     0.004 A 
ATOM     24  C   UNL     1     -18.432  11.675  11.502  1.00  0.00     0.111 A 
ATOM     25  C   UNL     1     -18.760  10.543  12.267  1.00  0.00     0.020 A 
ENDBRANCH  13  20
ENDBRANCH   1   7
BRANCH   6  26
ATOM     26  C   UNL     1     -14.635  17.410  11.912  1.00  0.00     0.100 C 
ATOM     27  N   UNL     1     -15.423  17.918  12.576  1.00  0.00    -0.192 NA
ENDBRANCH   6  26
TORSDOF 4
ENDMDL
MODEL 15
REMARK VINA RESULT:    -5.448      1.575      2.028
REMARK INTER + INTRA:          -7.564
REMARK INTER:                  -6.389
REMARK INTRA:                  -1.176
REMARK UNBOUND:                -0.843
REMARK SMILES N#Cc1ccccc1-c1cc(-c2ccccn2)cn(-c2ccccc2)c1=O
REMARK SMILES IDX 8 1 7 2 6 3 5 4 4 5 3 6 9 7 27 8 26 9 19 10 18 11 10 12
REMARK SMILES IDX 11 13 20 14 21 15 25 16 22 17 24 18 23 19 12 20 13 21 17 22
REMARK SMILES IDX 14 23 16 24 15 25 2 26 1 27
REMARK H PARENT
REMARK Flexibility Score: inf
ROOT
ATOM      1  C   UNL     1     -13.159  15.548  13.849  1.00  0.00     0.005 A 
ATOM      2  C   UNL     1     -12.007  15.757  13.052  1.00  0.00     0.010 A 
ATOM      3  C   UNL     1     -12.102  15.880  11.656  1.00  0.00     0.001 A 
ATOM      4  C   UNL     1     -13.352  15.779  11.026  1.00  0.00     0.001 A 
ATOM      5  C   UNL     1     -14.509  15.555  11.793  1.00  0.00     0.020 A 
ATOM      6  C   UNL     1     -14.426  15.447  13.201  1.00  0.00     0.060 A 
ENDROOT
BRANCH   1   7
ATOM      7  C   UNL     1     -12.999  15.468  15.269  1.00  0.00     0.050 A 
ATOM      8  O   UNL     1     -12.963  13.168  15.276  1.00  0.00    -0.268 OA
ATOM      9  C   UNL     1     -12.918  14.228  15.952  1.00  0.00     0.263 A 
ATOM     10  N   UNL     1     -12.762  14.179  17.320  1.00  0.00    -0.283 N 
ATOM     11  C   UNL     1     -12.667  15.338  18.049  1.00  0.00     0.105 A 
ATOM     12  C   UNL     1     -12.908  16.652  16.033  1.00  0.00     0.026 A 
ATOM     13  C   UNL     1     -12.728  16.604  17.429  1.00  0.00     0.018 A 
BRANCH  10  14
ATOM     14  C   UNL     1     -12.690  12.970  17.982  1.00  0.00     0.049 A 
ATOM     15  C   UNL     1     -11.442  12.343  18.208  1.00  0.00     0.027 A 
ATOM     16  C   UNL     1     -13.860  12.334  18.465  1.00  0.00     0.027 A 
ATOM     17  C   UNL     1     -11.358  11.132  18.918  1.00  0.00     0.002 A 
ATOM     18  C   UNL     1     -13.780  11.119  19.171  1.00  0.00     0.002 A 
ATOM     19  C   UNL     1     -12.528  10.522  19.402  1.00  0.00     0.000 A 
ENDBRANCH  10  14
BRANCH  13  20
ATOM     20  C   UNL     1     -12.610  17.799  18.178  1.00  0.00     0.072 A 
ATOM     21  C   UNL     1     -11.800  18.875  17.752  1.00  0.00     0.029 A 
ATOM     22  N   UNL     1     -13.297  17.917  19.347  1.00  0.00    -0.256 NA
ATOM     23  C   UNL     1     -11.722  20.037  18.542  1.00  0.00     0.004 A 
ATOM     24  C   UNL     1     -13.253  19.030  20.125  1.00  0.00     0.111 A 
ATOM     25  C   UNL     1     -12.457  20.122  19.738  1.00  0.00     0.020 A 
ENDBRANCH  13  20
ENDBRANCH   1   7
BRANCH   6  26
ATOM     26  C   UNL     1     -15.543  15.279  13.862  1.00  0.00     0.100 C 
ATOM     27  N   UNL     1     -16.521  15.128  14.444  1.00  0.00    -0.192 NA
ENDBRANCH   6  26
TORSDOF 4
ENDMDL
MODEL 16
REMARK VINA RESULT:    -5.419      2.577      7.545
REMARK INTER + INTRA:          -7.528
REMARK INTER:                  -6.421
REMARK INTRA:                  -1.107
REMARK UNBOUND:                -0.843
REMARK SMILES N#Cc1ccccc1-c1cc(-c2ccccn2)cn(-c2ccccc2)c1=O
REMARK SMILES IDX 8 1 7 2 6 3 5 4 4 5 3 6 9 7 27 8 26 9 19 10 18 11 10 12
REMARK SMILES IDX 11 13 20 14 21 15 25 16 22 17 24 18 23 19 12 20 13 21 17 22
REMARK SMILES IDX 14 23 16 24 15 25 2 26 1 27
REMARK H PARENT
REMARK Flexibility Score: inf
ROOT
ATOM      1  C   UNL     1     -13.218  13.869  16.016  1.00  0.00     0.005 A 
ATOM      2  C   UNL     1     -12.446  12.746  16.403  1.00  0.00     0.010 A 
ATOM      3  C   UNL     1     -11.921  12.638  17.702  1.00  0.00     0.001 A 
ATOM      4  C   UNL     1     -12.143  13.662  18.635  1.00  0.00     0.001 A 
ATOM      5  C   UNL     1     -12.890  14.795  18.271  1.00  0.00     0.020 A 
ATOM      6  C   UNL     1     -13.438  14.905  16.972  1.00  0.00     0.060 A 
ENDROOT
BRANCH   1   7
ATOM      7  C   UNL     1     -13.756  13.901  14.690  1.00  0.00     0.050 A 
ATOM      8  O   UNL     1     -12.158  15.370  13.927  1.00  0.00    -0.268 OA
ATOM      9  C   UNL     1     -13.185  14.695  13.663  1.00  0.00     0.263 A 
ATOM     10  N   UNL     1     -13.722  14.706  12.393  1.00  0.00    -0.283 N 
ATOM     11  C   UNL     1     -14.816  13.933  12.096  1.00  0.00     0.105 A 
ATOM     12  C   UNL     1     -14.886  13.117  14.372  1.00  0.00     0.026 A 
ATOM     13  C   UNL     1     -15.424  13.112  13.070  1.00  0.00     0.018 A 
BRANCH  10  14
ATOM     14  C   UNL     1     -13.168  15.485  11.397  1.00  0.00     0.049 A 
ATOM     15  C   UNL     1     -12.238  14.935  10.484  1.00  0.00     0.027 A 
ATOM     16  C   UNL     1     -13.528  16.847  11.254  1.00  0.00     0.027 A 
ATOM     17  C   UNL     1     -11.702  15.712   9.441  1.00  0.00     0.002 A 
ATOM     18  C   UNL     1     -12.989  17.629  10.215  1.00  0.00     0.002 A 
ATOM     19  C   UNL     1     -12.080  17.059   9.305  1.00  0.00     0.000 A 
ENDBRANCH  10  14
BRANCH  13  20
ATOM     20  C   UNL     1     -16.539  12.299  12.759  1.00  0.00     0.072 A 
ATOM     21  C   UNL     1     -16.758  11.052  13.385  1.00  0.00     0.029 A 
ATOM     22  N   UNL     1     -17.431  12.731  11.825  1.00  0.00    -0.256 NA
ATOM     23  C   UNL     1     -17.885  10.288  13.030  1.00  0.00     0.004 A 
ATOM     24  C   UNL     1     -18.536  12.024  11.472  1.00  0.00     0.111 A 
ATOM     25  C   UNL     1     -18.788  10.777  12.069  1.00  0.00     0.020 A 
ENDBRANCH  13  20
ENDBRANCH   1   7
BRANCH   6  26
ATOM     26  C   UNL     1     -14.159  15.965  16.706  1.00  0.00     0.100 C 
ATOM     27  N   UNL     1     -14.794  16.892  16.471  1.00  0.00    -0.192 NA
ENDBRANCH   6  26
TORSDOF 4
ENDMDL
MODEL 17
REMARK VINA RESULT:    -5.413      1.642      6.536
REMARK INTER + INTRA:          -7.522
REMARK INTER:                  -6.925
REMARK INTRA:                  -0.597
REMARK UNBOUND:                -0.843
REMARK SMILES N#Cc1ccccc1-c1cc(-c2ccccn2)cn(-c2ccccc2)c1=O
REMARK SMILES IDX 8 1 7 2 6 3 5 4 4 5 3 6 9 7 27 8 26 9 19 10 18 11 10 12
REMARK SMILES IDX 11 13 20 14 21 15 25 16 22 17 24 18 23 19 12 20 13 21 17 22
REMARK SMILES IDX 14 23 16 24 15 25 2 26 1 27
REMARK H PARENT
REMARK Flexibility Score: inf
ROOT
ATOM      1  C   UNL     1     -12.687  17.835  16.489  1.00  0.00     0.005 A 
ATOM      2  C   UNL     1     -13.734  18.214  17.365  1.00  0.00     0.010 A 
ATOM      3  C   UNL     1     -13.663  19.406  18.107  1.00  0.00     0.001 A 
ATOM      4  C   UNL     1     -12.535  20.233  18.002  1.00  0.00     0.001 A 
ATOM      5  C   UNL     1     -11.475  19.870  17.153  1.00  0.00     0.020 A 
ATOM      6  C   UNL     1     -11.543  18.682  16.389  1.00  0.00     0.060 A 
ENDROOT
BRANCH   1   7
ATOM      7  C   UNL     1     -12.836  16.629  15.734  1.00  0.00     0.050 A 
ATOM      8  O   UNL     1     -12.916  17.735  13.718  1.00  0.00    -0.268 OA
ATOM      9  C   UNL     1     -12.963  16.632  14.321  1.00  0.00     0.263 A 
ATOM     10  N   UNL     1     -13.105  15.456  13.618  1.00  0.00    -0.283 N 
ATOM     11  C   UNL     1     -13.110  14.251  14.275  1.00  0.00     0.105 A 
ATOM     12  C   UNL     1     -12.852  15.382  16.397  1.00  0.00     0.026 A 
ATOM     13  C   UNL     1     -12.977  14.178  15.678  1.00  0.00     0.018 A 
BRANCH  10  14
ATOM     14  C   UNL     1     -13.235  15.464  12.244  1.00  0.00     0.049 A 
ATOM     15  C   UNL     1     -12.092  15.425  11.410  1.00  0.00     0.027 A 
ATOM     16  C   UNL     1     -14.512  15.494  11.633  1.00  0.00     0.027 A 
ATOM     17  C   UNL     1     -12.219  15.391  10.010  1.00  0.00     0.002 A 
ATOM     18  C   UNL     1     -14.642  15.466  10.233  1.00  0.00     0.002 A 
ATOM     19  C   UNL     1     -13.495  15.408   9.421  1.00  0.00     0.000 A 
ENDBRANCH  10  14
BRANCH  13  20
ATOM     20  C   UNL     1     -12.961  12.935  16.354  1.00  0.00     0.072 A 
ATOM     21  C   UNL     1     -14.069  12.058  16.340  1.00  0.00     0.029 A 
ATOM     22  N   UNL     1     -11.844  12.572  17.043  1.00  0.00    -0.256 NA
ATOM     23  C   UNL     1     -13.993  10.837  17.034  1.00  0.00     0.004 A 
ATOM     24  C   UNL     1     -11.735  11.393  17.711  1.00  0.00     0.111 A 
ATOM     25  C   UNL     1     -12.815  10.495  17.724  1.00  0.00     0.020 A 
ENDBRANCH  13  20
ENDBRANCH   1   7
BRANCH   6  26
ATOM     26  C   UNL     1     -10.543  18.419  15.586  1.00  0.00     0.100 C 
ATOM     27  N   UNL     1      -9.663  18.191  14.886  1.00  0.00    -0.192 NA
ENDBRANCH   6  26
TORSDOF 4
ENDMDL
MODEL 18
REMARK VINA RESULT:    -5.395      2.466      5.586
REMARK INTER + INTRA:          -7.499
REMARK INTER:                  -6.534
REMARK INTRA:                  -0.965
REMARK UNBOUND:                -0.843
REMARK SMILES N#Cc1ccccc1-c1cc(-c2ccccn2)cn(-c2ccccc2)c1=O
REMARK SMILES IDX 8 1 7 2 6 3 5 4 4 5 3 6 9 7 27 8 26 9 19 10 18 11 10 12
REMARK SMILES IDX 11 13 20 14 21 15 25 16 22 17 24 18 23 19 12 20 13 21 17 22
REMARK SMILES IDX 14 23 16 24 15 25 2 26 1 27
REMARK H PARENT
REMARK Flexibility Score: inf
ROOT
ATOM      1  C   UNL     1     -12.261  16.576  15.511  1.00  0.00     0.005 A 
ATOM      2  C   UNL     1     -11.016  16.792  14.872  1.00  0.00     0.010 A 
ATOM      3  C   UNL     1     -10.409  18.059  14.875  1.00  0.00     0.001 A 
ATOM      4  C   UNL     1     -11.045  19.141  15.502  1.00  0.00     0.001 A 
ATOM      5  C   UNL     1     -12.290  18.957  16.128  1.00  0.00     0.020 A 
ATOM      6  C   UNL     1     -12.901  17.682  16.146  1.00  0.00     0.060 A 
ENDROOT
BRANCH   1   7
ATOM      7  C   UNL     1     -12.809  15.254  15.504  1.00  0.00     0.050 A 
ATOM      8  O   UNL     1     -12.269  14.867  17.706  1.00  0.00    -0.268 OA
ATOM      9  C   UNL     1     -12.775  14.416  16.647  1.00  0.00     0.263 A 
ATOM     10  N   UNL     1     -13.310  13.146  16.614  1.00  0.00    -0.283 N 
ATOM     11  C   UNL     1     -13.903  12.674  15.470  1.00  0.00     0.105 A 
ATOM     12  C   UNL     1     -13.414  14.751  14.331  1.00  0.00     0.026 A 
ATOM     13  C   UNL     1     -13.980  13.462  14.301  1.00  0.00     0.018 A 
BRANCH  10  14
ATOM     14  C   UNL     1     -13.270  12.331  17.727  1.00  0.00     0.049 A 
ATOM     15  C   UNL     1     -12.222  11.397  17.901  1.00  0.00     0.027 A 
ATOM     16  C   UNL     1     -14.267  12.419  18.730  1.00  0.00     0.027 A 
ATOM     17  C   UNL     1     -12.153  10.594  19.053  1.00  0.00     0.002 A 
ATOM     18  C   UNL     1     -14.204  11.613  19.881  1.00  0.00     0.002 A 
ATOM     19  C   UNL     1     -13.143  10.704  20.045  1.00  0.00     0.000 A 
ENDBRANCH  10  14
BRANCH  13  20
ATOM     20  C   UNL     1     -14.609  12.983  13.128  1.00  0.00     0.072 A 
ATOM     21  C   UNL     1     -15.877  12.362  13.155  1.00  0.00     0.029 A 
ATOM     22  N   UNL     1     -13.971  13.122  11.933  1.00  0.00    -0.256 NA
ATOM     23  C   UNL     1     -16.449  11.904  11.954  1.00  0.00     0.004 A 
ATOM     24  C   UNL     1     -14.503  12.704  10.755  1.00  0.00     0.111 A 
ATOM     25  C   UNL     1     -15.762  12.079  10.739  1.00  0.00     0.020 A 
ENDBRANCH  13  20
ENDBRANCH   1   7
BRANCH   6  26
ATOM     26  C   UNL     1     -14.040  17.565  16.780  1.00  0.00     0.100 C 
ATOM     27  N   UNL     1     -15.038  17.459  17.338  1.00  0.00    -0.192 NA
ENDBRANCH   6  26
TORSDOF 4
ENDMDL
MODEL 19
REMARK VINA RESULT:    -5.393      2.848      4.807
REMARK INTER + INTRA:          -7.496
REMARK INTER:                  -6.334
REMARK INTRA:                  -1.162
REMARK UNBOUND:                -0.843
REMARK SMILES N#Cc1ccccc1-c1cc(-c2ccccn2)cn(-c2ccccc2)c1=O
REMARK SMILES IDX 8 1 7 2 6 3 5 4 4 5 3 6 9 7 27 8 26 9 19 10 18 11 10 12
REMARK SMILES IDX 11 13 20 14 21 15 25 16 22 17 24 18 23 19 12 20 13 21 17 22
REMARK SMILES IDX 14 23 16 24 15 25 2 26 1 27
REMARK H PARENT
REMARK Flexibility Score: inf
ROOT
ATOM      1  C   UNL     1     -13.465  15.870  11.013  1.00  0.00     0.005 A 
ATOM      2  C   UNL     1     -12.510  15.255  10.168  1.00  0.00     0.010 A 
ATOM      3  C   UNL     1     -11.711  16.018   9.299  1.00  0.00     0.001 A 
ATOM      4  C   UNL     1     -11.866  17.411   9.245  1.00  0.00     0.001 A 
ATOM      5  C   UNL     1     -12.819  18.044  10.061  1.00  0.00     0.020 A 
ATOM      6  C   UNL     1     -13.616  17.288  10.952  1.00  0.00     0.060 A 
ENDROOT
BRANCH   1   7
ATOM      7  C   UNL     1     -14.221  15.041  11.901  1.00  0.00     0.050 A 
ATOM      8  O   UNL     1     -15.931  14.741  10.392  1.00  0.00    -0.268 OA
ATOM      9  C   UNL     1     -15.482  14.500  11.542  1.00  0.00     0.263 A 
ATOM     10  N   UNL     1     -16.189  13.704  12.416  1.00  0.00    -0.283 N 
ATOM     11  C   UNL     1     -15.674  13.405  13.653  1.00  0.00     0.105 A 
ATOM     12  C   UNL     1     -13.709  14.733  13.181  1.00  0.00     0.026 A 
ATOM     13  C   UNL     1     -14.420  13.903  14.068  1.00  0.00     0.018 A 
BRANCH  10  14
ATOM     14  C   UNL     1     -17.418  13.184  12.065  1.00  0.00     0.049 A 
ATOM     15  C   UNL     1     -18.601  13.939  12.248  1.00  0.00     0.027 A 
ATOM     16  C   UNL     1     -17.526  11.891  11.498  1.00  0.00     0.027 A 
ATOM     17  C   UNL     1     -19.852  13.431  11.853  1.00  0.00     0.002 A 
ATOM     18  C   UNL     1     -18.777  11.377  11.107  1.00  0.00     0.002 A 
ATOM     19  C   UNL     1     -19.939  12.151  11.280  1.00  0.00     0.000 A 
ENDBRANCH  10  14
BRANCH  13  20
ATOM     20  C   UNL     1     -13.881  13.579  15.335  1.00  0.00     0.072 A 
ATOM     21  C   UNL     1     -13.171  14.521  16.112  1.00  0.00     0.029 A 
ATOM     22  N   UNL     1     -14.048  12.319  15.822  1.00  0.00    -0.256 NA
ATOM     23  C   UNL     1     -12.656  14.138  17.365  1.00  0.00     0.004 A 
ATOM     24  C   UNL     1     -13.576  11.922  17.033  1.00  0.00     0.111 A 
ATOM     25  C   UNL     1     -12.862  12.828  17.835  1.00  0.00     0.020 A 
ENDBRANCH  13  20
ENDBRANCH   1   7
BRANCH   6  26
ATOM     26  C   UNL     1     -14.457  17.939  11.714  1.00  0.00     0.100 C 
ATOM     27  N   UNL     1     -15.195  18.507  12.386  1.00  0.00    -0.192 NA
ENDBRANCH   6  26
TORSDOF 4
ENDMDL
MODEL 20
REMARK VINA RESULT:    -5.383      3.723      6.613
REMARK INTER + INTRA:          -7.484
REMARK INTER:                  -6.395
REMARK INTRA:                  -1.089
REMARK UNBOUND:                -0.843
REMARK SMILES N#Cc1ccccc1-c1cc(-c2ccccn2)cn(-c2ccccc2)c1=O
REMARK SMILES IDX 8 1 7 2 6 3 5 4 4 5 3 6 9 7 27 8 26 9 19 10 18 11 10 12
REMARK SMILES IDX 11 13 20 14 21 15 25 16 22 17 24 18 23 19 12 20 13 21 17 22
REMARK SMILES IDX 14 23 16 24 15 25 2 26 1 27
REMARK H PARENT
REMARK Flexibility Score: inf
ROOT
ATOM      1  C   UNL     1     -14.472  15.734  11.195  1.00  0.00     0.005 A 
ATOM      2  C   UNL     1     -15.436  14.826  11.698  1.00  0.00     0.010 A 
ATOM      3  C   UNL     1     -15.520  13.511  11.208  1.00  0.00     0.001 A 
ATOM      4  C   UNL     1     -14.652  13.084  10.192  1.00  0.00     0.001 A 
ATOM      5  C   UNL     1     -13.698  13.972   9.664  1.00  0.00     0.020 A 
ATOM      6  C   UNL     1     -13.594  15.291  10.162  1.00  0.00     0.060 A 
ENDROOT
BRANCH   1   7
ATOM      7  C   UNL     1     -14.414  17.047  11.762  1.00  0.00     0.050 A 
ATOM      8  O   UNL     1     -15.879  17.928  10.223  1.00  0.00    -0.268 OA
ATOM      9  C   UNL     1     -15.141  18.137  11.220  1.00  0.00     0.263 A 
ATOM     10  N   UNL     1     -15.068  19.391  11.786  1.00  0.00    -0.283 N 
ATOM     11  C   UNL     1     -14.298  19.605  12.901  1.00  0.00     0.105 A 
ATOM     12  C   UNL     1     -13.619  17.284  12.905  1.00  0.00     0.026 A 
ATOM     13  C   UNL     1     -13.559  18.560  13.497  1.00  0.00     0.018 A 
BRANCH  10  14
ATOM     14  C   UNL     1     -15.772  20.451  11.251  1.00  0.00     0.049 A 
ATOM     15  C   UNL     1     -17.157  20.598  11.501  1.00  0.00     0.027 A 
ATOM     16  C   UNL     1     -15.125  21.427  10.454  1.00  0.00     0.027 A 
ATOM     17  C   UNL     1     -17.871  21.699  10.993  1.00  0.00     0.002 A 
ATOM     18  C   UNL     1     -15.837  22.526   9.940  1.00  0.00     0.002 A 
ATOM     19  C   UNL     1     -17.210  22.664  10.215  1.00  0.00     0.000 A 
ENDBRANCH  10  14
BRANCH  13  20
ATOM     20  C   UNL     1     -12.781  18.775  14.658  1.00  0.00     0.072 A 
ATOM     21  C   UNL     1     -11.369  18.796  14.624  1.00  0.00     0.029 A 
ATOM     22  N   UNL     1     -13.412  18.967  15.850  1.00  0.00    -0.256 NA
ATOM     23  C   UNL     1     -10.651  19.013  15.815  1.00  0.00     0.004 A 
ATOM     24  C   UNL     1     -12.748  19.193  17.013  1.00  0.00     0.111 A 
ATOM     25  C   UNL     1     -11.343  19.218  17.022  1.00  0.00     0.020 A 
ENDBRANCH  13  20
ENDBRANCH   1   7
BRANCH   6  26
ATOM     26  C   UNL     1     -12.660  16.057   9.658  1.00  0.00     0.100 C 
ATOM     27  N   UNL     1     -11.843  16.730   9.213  1.00  0.00    -0.192 NA
ENDBRANCH   6  26
TORSDOF 4
ENDMDL
