MODEL 1
REMARK VINA RESULT:    -5.776      0.000      0.000
REMARK INTER + INTRA:         -15.223
REMARK INTER:                 -12.530
REMARK INTRA:                  -2.693
REMARK UNBOUND:                -2.693
REMARK SMILES CCCCCCCCCCCCCCCCO[P@](=O)([O-])OCC[N+](C)(C)C
REMARK SMILES IDX 12 1 11 2 10 3 9 4 8 5 7 6 6 7 5 8 4 9 3 10 2 11 1 12 13 13
REMARK SMILES IDX 14 14 15 15 16 16 17 17 18 18 20 19 19 20 21 21 22 22 23 23
REMARK SMILES IDX 24 24 25 25 26 26 27 27
REMARK H PARENT
REMARK Flexibility Score: inf
ROOT
ATOM      1  C   UNL     1      17.066  -9.188  16.082  1.00  0.00     0.000 C 
ENDROOT
BRANCH   1   2
ATOM      2  C   UNL     1      17.745  -8.038  15.295  1.00  0.00     0.000 C 
BRANCH   2   3
ATOM      3  C   UNL     1      16.851  -7.580  14.110  1.00  0.00     0.000 C 
BRANCH   3   4
ATOM      4  C   UNL     1      16.500  -6.072  14.151  1.00  0.00     0.000 C 
BRANCH   4   5
ATOM      5  C   UNL     1      16.473  -5.496  15.593  1.00  0.00    -0.000 C 
BRANCH   5   6
ATOM      6  C   UNL     1      17.705  -4.594  15.874  1.00  0.00    -0.000 C 
BRANCH   6   7
ATOM      7  C   UNL     1      18.051  -4.479  17.380  1.00  0.00    -0.000 C 
BRANCH   7   8
ATOM      8  C   UNL     1      18.668  -5.789  17.939  1.00  0.00    -0.000 C 
BRANCH   8   9
ATOM      9  C   UNL     1      20.121  -6.014  17.446  1.00  0.00    -0.000 C 
BRANCH   9  10
ATOM     10  C   UNL     1      20.666  -7.414  17.833  1.00  0.00    -0.000 C 
BRANCH  10  11
ATOM     11  C   UNL     1      19.833  -8.081  18.957  1.00  0.00    -0.003 C 
ATOM     12  C   UNL     1      20.312  -9.515  19.267  1.00  0.00     0.004 C 
ENDBRANCH  10  11
ENDBRANCH   9  10
ENDBRANCH   8   9
ENDBRANCH   7   8
ENDBRANCH   6   7
ENDBRANCH   5   6
ENDBRANCH   4   5
ENDBRANCH   3   4
ENDBRANCH   2   3
ENDBRANCH   1   2
BRANCH   1  13
ATOM     13  C   UNL     1      16.471  -8.761  17.446  1.00  0.00     0.000 C 
BRANCH  13  14
ATOM     14  C   UNL     1      14.931  -8.619  17.338  1.00  0.00     0.002 C 
BRANCH  14  15
ATOM     15  C   UNL     1      14.387  -7.293  17.919  1.00  0.00     0.029 C 
BRANCH  15  16
ATOM     16  C   UNL     1      12.964  -7.009  17.387  1.00  0.00     0.170 C 
BRANCH  16  17
ATOM     17  O   UNL     1      13.022  -6.581  15.967  1.00  0.00    -0.318 OA
BRANCH  17  18
ATOM     18  P   UNL     1      12.347  -7.348  14.678  1.00  0.00     0.268 P 
ATOM     19  O   UNL     1      13.384  -8.397  14.108  1.00  0.00    -0.756 OA
ATOM     20  O   UNL     1      11.109  -8.014  15.088  1.00  0.00    -0.276 OA
BRANCH  18  21
ATOM     21  O   UNL     1      12.055  -6.251  13.565  1.00  0.00    -0.312 OA
BRANCH  21  22
ATOM     22  C   UNL     1      10.672  -5.833  13.501  1.00  0.00     0.231 C 
BRANCH  22  23
ATOM     23  C   UNL     1      10.188  -6.019  12.041  1.00  0.00     0.292 C 
BRANCH  23  24
ATOM     24  N   UNL     1       9.152  -7.092  11.739  1.00  0.00    -0.329 N 
ATOM     25  C   UNL     1       8.498  -7.480  13.048  1.00  0.00     0.334 C 
ATOM     26  C   UNL     1       9.793  -8.324  11.143  1.00  0.00     0.334 C 
ATOM     27  C   UNL     1       8.079  -6.577  10.806  1.00  0.00     0.334 C 
ENDBRANCH  23  24
ENDBRANCH  22  23
ENDBRANCH  21  22
ENDBRANCH  18  21
ENDBRANCH  17  18
ENDBRANCH  16  17
ENDBRANCH  15  16
ENDBRANCH  14  15
ENDBRANCH  13  14
ENDBRANCH   1  13
TORSDOF 20
ENDMDL
MODEL 2
REMARK VINA RESULT:    -5.774      3.984      9.383
REMARK INTER + INTRA:         -15.217
REMARK INTER:                 -13.503
REMARK INTRA:                  -1.714
REMARK UNBOUND:                -2.693
REMARK SMILES CCCCCCCCCCCCCCCCO[P@](=O)([O-])OCC[N+](C)(C)C
REMARK SMILES IDX 12 1 11 2 10 3 9 4 8 5 7 6 6 7 5 8 4 9 3 10 2 11 1 12 13 13
REMARK SMILES IDX 14 14 15 15 16 16 17 17 18 18 20 19 19 20 21 21 22 22 23 23
REMARK SMILES IDX 24 24 25 25 26 26 27 27
REMARK H PARENT
REMARK Flexibility Score: inf
ROOT
ATOM      1  C   UNL     1      13.207  -7.729  15.014  1.00  0.00     0.000 C 
ENDROOT
BRANCH   1   2
ATOM      2  C   UNL     1      12.184  -7.515  13.869  1.00  0.00     0.000 C 
BRANCH   2   3
ATOM      3  C   UNL     1      11.466  -8.847  13.517  1.00  0.00     0.000 C 
BRANCH   3   4
ATOM      4  C   UNL     1      10.762  -8.820  12.137  1.00  0.00     0.000 C 
BRANCH   4   5
ATOM      5  C   UNL     1       9.247  -8.496  12.236  1.00  0.00    -0.000 C 
BRANCH   5   6
ATOM      6  C   UNL     1       8.558  -8.543  10.846  1.00  0.00    -0.000 C 
BRANCH   6   7
ATOM      7  C   UNL     1       7.118  -7.970  10.854  1.00  0.00    -0.000 C 
BRANCH   7   8
ATOM      8  C   UNL     1       7.014  -6.642  10.057  1.00  0.00    -0.000 C 
BRANCH   8   9
ATOM      9  C   UNL     1       6.618  -5.443  10.957  1.00  0.00    -0.000 C 
BRANCH   9  10
ATOM     10  C   UNL     1       7.824  -4.875  11.749  1.00  0.00    -0.000 C 
BRANCH  10  11
ATOM     11  C   UNL     1       8.986  -4.437  10.821  1.00  0.00    -0.003 C 
ATOM     12  C   UNL     1      10.312  -5.144  11.170  1.00  0.00     0.004 C 
ENDBRANCH  10  11
ENDBRANCH   9  10
ENDBRANCH   8   9
ENDBRANCH   7   8
ENDBRANCH   6   7
ENDBRANCH   5   6
ENDBRANCH   4   5
ENDBRANCH   3   4
ENDBRANCH   2   3
ENDBRANCH   1   2
BRANCH   1  13
ATOM     13  C   UNL     1      14.084  -8.995  14.855  1.00  0.00     0.000 C 
BRANCH  13  14
ATOM     14  C   UNL     1      15.270  -8.708  13.899  1.00  0.00     0.002 C 
BRANCH  14  15
ATOM     15  C   UNL     1      16.423  -7.916  14.560  1.00  0.00     0.029 C 
BRANCH  15  16
ATOM     16  C   UNL     1      17.121  -8.772  15.641  1.00  0.00     0.170 C 
BRANCH  16  17
ATOM     17  O   UNL     1      17.758  -7.898  16.657  1.00  0.00    -0.318 OA
BRANCH  17  18
ATOM     18  P   UNL     1      17.065  -7.317  18.031  1.00  0.00     0.268 P 
ATOM     19  O   UNL     1      18.178  -7.174  19.144  1.00  0.00    -0.756 OA
ATOM     20  O   UNL     1      16.434  -6.022  17.761  1.00  0.00    -0.276 OA
BRANCH  18  21
ATOM     21  O   UNL     1      15.984  -8.380  18.510  1.00  0.00    -0.312 OA
BRANCH  21  22
ATOM     22  C   UNL     1      14.716  -7.800  18.888  1.00  0.00     0.231 C 
BRANCH  22  23
ATOM     23  C   UNL     1      14.504  -8.066  20.400  1.00  0.00     0.292 C 
BRANCH  23  24
ATOM     24  N   UNL     1      13.501  -7.215  21.165  1.00  0.00    -0.329 N 
ATOM     25  C   UNL     1      12.390  -6.841  20.206  1.00  0.00     0.334 C 
ATOM     26  C   UNL     1      14.137  -5.943  21.677  1.00  0.00     0.334 C 
ATOM     27  C   UNL     1      12.895  -7.979  22.320  1.00  0.00     0.334 C 
ENDBRANCH  23  24
ENDBRANCH  22  23
ENDBRANCH  21  22
ENDBRANCH  18  21
ENDBRANCH  17  18
ENDBRANCH  16  17
ENDBRANCH  15  16
ENDBRANCH  14  15
ENDBRANCH  13  14
ENDBRANCH   1  13
TORSDOF 20
ENDMDL
MODEL 3
REMARK VINA RESULT:    -5.761      5.089      8.908
REMARK INTER + INTRA:         -15.190
REMARK INTER:                 -12.957
REMARK INTRA:                  -2.233
REMARK UNBOUND:                -2.693
REMARK SMILES CCCCCCCCCCCCCCCCO[P@](=O)([O-])OCC[N+](C)(C)C
REMARK SMILES IDX 12 1 11 2 10 3 9 4 8 5 7 6 6 7 5 8 4 9 3 10 2 11 1 12 13 13
REMARK SMILES IDX 14 14 15 15 16 16 17 17 18 18 20 19 19 20 21 21 22 22 23 23
REMARK SMILES IDX 24 24 25 25 26 26 27 27
REMARK H PARENT
REMARK Flexibility Score: inf
ROOT
ATOM      1  C   UNL     1      15.272  -9.182  17.516  1.00  0.00     0.000 C 
ENDROOT
BRANCH   1   2
ATOM      2  C   UNL     1      16.304  -9.367  16.373  1.00  0.00     0.000 C 
BRANCH   2   3
ATOM      3  C   UNL     1      15.585  -9.596  15.015  1.00  0.00     0.000 C 
BRANCH   3   4
ATOM      4  C   UNL     1      15.530  -8.327  14.127  1.00  0.00     0.000 C 
BRANCH   4   5
ATOM      5  C   UNL     1      16.564  -7.249  14.548  1.00  0.00    -0.000 C 
BRANCH   5   6
ATOM      6  C   UNL     1      15.876  -5.910  14.927  1.00  0.00    -0.000 C 
BRANCH   6   7
ATOM      7  C   UNL     1      14.501  -5.710  14.241  1.00  0.00    -0.000 C 
BRANCH   7   8
ATOM      8  C   UNL     1      13.365  -5.467  15.270  1.00  0.00    -0.000 C 
BRANCH   8   9
ATOM      9  C   UNL     1      12.315  -6.607  15.270  1.00  0.00    -0.000 C 
BRANCH   9  10
ATOM     10  C   UNL     1      11.971  -7.094  13.838  1.00  0.00    -0.000 C 
BRANCH  10  11
ATOM     11  C   UNL     1      11.968  -8.640  13.725  1.00  0.00    -0.003 C 
ATOM     12  C   UNL     1      10.898  -9.153  12.739  1.00  0.00     0.004 C 
ENDBRANCH  10  11
ENDBRANCH   9  10
ENDBRANCH   8   9
ENDBRANCH   7   8
ENDBRANCH   6   7
ENDBRANCH   5   6
ENDBRANCH   4   5
ENDBRANCH   3   4
ENDBRANCH   2   3
ENDBRANCH   1   2
BRANCH   1  13
ATOM     13  C   UNL     1      15.374  -7.823  18.251  1.00  0.00     0.000 C 
BRANCH  13  14
ATOM     14  C   UNL     1      13.991  -7.123  18.275  1.00  0.00     0.002 C 
BRANCH  14  15
ATOM     15  C   UNL     1      13.697  -6.374  19.597  1.00  0.00     0.029 C 
BRANCH  15  16
ATOM     16  C   UNL     1      12.284  -6.723  20.116  1.00  0.00     0.170 C 
BRANCH  16  17
ATOM     17  O   UNL     1      12.365  -7.780  21.155  1.00  0.00    -0.318 OA
BRANCH  17  18
ATOM     18  P   UNL     1      13.264  -7.742  22.532  1.00  0.00     0.268 P 
ATOM     19  O   UNL     1      13.322  -6.254  23.062  1.00  0.00    -0.756 OA
ATOM     20  O   UNL     1      12.671  -8.627  23.538  1.00  0.00    -0.276 OA
BRANCH  18  21
ATOM     21  O   UNL     1      14.734  -8.219  22.159  1.00  0.00    -0.312 OA
BRANCH  21  22
ATOM     22  C   UNL     1      15.483  -8.744  23.278  1.00  0.00     0.231 C 
BRANCH  22  23
ATOM     23  C   UNL     1      16.716  -7.829  23.495  1.00  0.00     0.292 C 
BRANCH  23  24
ATOM     24  N   UNL     1      17.937  -8.395  24.205  1.00  0.00    -0.329 N 
ATOM     25  C   UNL     1      18.451  -7.331  25.153  1.00  0.00     0.334 C 
ATOM     26  C   UNL     1      19.037  -8.731  23.225  1.00  0.00     0.334 C 
ATOM     27  C   UNL     1      17.586  -9.623  25.014  1.00  0.00     0.334 C 
ENDBRANCH  23  24
ENDBRANCH  22  23
ENDBRANCH  21  22
ENDBRANCH  18  21
ENDBRANCH  17  18
ENDBRANCH  16  17
ENDBRANCH  15  16
ENDBRANCH  14  15
ENDBRANCH  13  14
ENDBRANCH   1  13
TORSDOF 20
ENDMDL
MODEL 4
REMARK VINA RESULT:    -5.733      1.951      2.910
REMARK INTER + INTRA:         -15.129
REMARK INTER:                 -12.987
REMARK INTRA:                  -2.142
REMARK UNBOUND:                -2.693
REMARK SMILES CCCCCCCCCCCCCCCCO[P@](=O)([O-])OCC[N+](C)(C)C
REMARK SMILES IDX 12 1 11 2 10 3 9 4 8 5 7 6 6 7 5 8 4 9 3 10 2 11 1 12 13 13
REMARK SMILES IDX 14 14 15 15 16 16 17 17 18 18 20 19 19 20 21 21 22 22 23 23
REMARK SMILES IDX 24 24 25 25 26 26 27 27
REMARK H PARENT
REMARK Flexibility Score: inf
ROOT
ATOM      1  C   UNL     1      15.254  -9.053  17.678  1.00  0.00     0.000 C 
ENDROOT
BRANCH   1   2
ATOM      2  C   UNL     1      16.117  -9.204  16.399  1.00  0.00     0.000 C 
BRANCH   2   3
ATOM      3  C   UNL     1      15.229  -9.569  15.177  1.00  0.00     0.000 C 
BRANCH   3   4
ATOM      4  C   UNL     1      15.179  -8.456  14.100  1.00  0.00     0.000 C 
BRANCH   4   5
ATOM      5  C   UNL     1      16.408  -7.509  14.150  1.00  0.00    -0.000 C 
BRANCH   5   6
ATOM      6  C   UNL     1      15.993  -6.047  14.465  1.00  0.00    -0.000 C 
BRANCH   6   7
ATOM      7  C   UNL     1      17.125  -5.214  15.119  1.00  0.00    -0.000 C 
BRANCH   7   8
ATOM      8  C   UNL     1      17.690  -5.897  16.394  1.00  0.00    -0.000 C 
BRANCH   8   9
ATOM      9  C   UNL     1      18.786  -5.044  17.084  1.00  0.00    -0.000 C 
BRANCH   9  10
ATOM     10  C   UNL     1      18.286  -4.391  18.399  1.00  0.00    -0.000 C 
BRANCH  10  11
ATOM     11  C   UNL     1      19.210  -3.241  18.874  1.00  0.00    -0.003 C 
ATOM     12  C   UNL     1      18.822  -2.719  20.273  1.00  0.00     0.004 C 
ENDBRANCH  10  11
ENDBRANCH   9  10
ENDBRANCH   8   9
ENDBRANCH   7   8
ENDBRANCH   6   7
ENDBRANCH   5   6
ENDBRANCH   4   5
ENDBRANCH   3   4
ENDBRANCH   2   3
ENDBRANCH   1   2
BRANCH   1  13
ATOM     13  C   UNL     1      14.806  -7.601  17.975  1.00  0.00     0.000 C 
BRANCH  13  14
ATOM     14  C   UNL     1      13.449  -7.308  17.286  1.00  0.00     0.002 C 
BRANCH  14  15
ATOM     15  C   UNL     1      13.226  -5.811  16.966  1.00  0.00     0.029 C 
BRANCH  15  16
ATOM     16  C   UNL     1      12.593  -5.643  15.566  1.00  0.00     0.170 C 
BRANCH  16  17
ATOM     17  O   UNL     1      11.953  -6.911  15.136  1.00  0.00    -0.318 OA
BRANCH  17  18
ATOM     18  P   UNL     1      10.828  -7.095  13.949  1.00  0.00     0.268 P 
ATOM     19  O   UNL     1      10.975  -8.540  13.326  1.00  0.00    -0.756 OA
ATOM     20  O   UNL     1       9.485  -6.903  14.503  1.00  0.00    -0.276 OA
BRANCH  18  21
ATOM     21  O   UNL     1      11.134  -6.011  12.827  1.00  0.00    -0.312 OA
BRANCH  21  22
ATOM     22  C   UNL     1      10.009  -5.162  12.508  1.00  0.00     0.231 C 
BRANCH  22  23
ATOM     23  C   UNL     1       9.497  -5.561  11.101  1.00  0.00     0.292 C 
BRANCH  23  24
ATOM     24  N   UNL     1       8.066  -5.217  10.713  1.00  0.00    -0.329 N 
ATOM     25  C   UNL     1       8.125  -4.149   9.640  1.00  0.00     0.334 C 
ATOM     26  C   UNL     1       7.294  -4.667  11.890  1.00  0.00     0.334 C 
ATOM     27  C   UNL     1       7.342  -6.418  10.149  1.00  0.00     0.334 C 
ENDBRANCH  23  24
ENDBRANCH  22  23
ENDBRANCH  21  22
ENDBRANCH  18  21
ENDBRANCH  17  18
ENDBRANCH  16  17
ENDBRANCH  15  16
ENDBRANCH  14  15
ENDBRANCH  13  14
ENDBRANCH   1  13
TORSDOF 20
ENDMDL
MODEL 5
REMARK VINA RESULT:    -5.706      4.790      8.131
REMARK INTER + INTRA:         -15.071
REMARK INTER:                 -12.173
REMARK INTRA:                  -2.897
REMARK UNBOUND:                -2.693
REMARK SMILES CCCCCCCCCCCCCCCCO[P@](=O)([O-])OCC[N+](C)(C)C
REMARK SMILES IDX 12 1 11 2 10 3 9 4 8 5 7 6 6 7 5 8 4 9 3 10 2 11 1 12 13 13
REMARK SMILES IDX 14 14 15 15 16 16 17 17 18 18 20 19 19 20 21 21 22 22 23 23
REMARK SMILES IDX 24 24 25 25 26 26 27 27
REMARK H PARENT
REMARK Flexibility Score: inf
ROOT
ATOM      1  C   UNL     1      15.530  -9.173  17.370  1.00  0.00     0.000 C 
ENDROOT
BRANCH   1   2
ATOM      2  C   UNL     1      16.631  -9.075  16.283  1.00  0.00     0.000 C 
BRANCH   2   3
ATOM      3  C   UNL     1      16.004  -9.112  14.862  1.00  0.00     0.000 C 
BRANCH   3   4
ATOM      4  C   UNL     1      14.487  -9.428  14.867  1.00  0.00     0.000 C 
BRANCH   4   5
ATOM      5  C   UNL     1      13.684  -8.557  13.865  1.00  0.00    -0.000 C 
BRANCH   5   6
ATOM      6  C   UNL     1      12.674  -7.629  14.592  1.00  0.00    -0.000 C 
BRANCH   6   7
ATOM      7  C   UNL     1      13.008  -6.122  14.446  1.00  0.00    -0.000 C 
BRANCH   7   8
ATOM      8  C   UNL     1      14.351  -5.753  15.132  1.00  0.00    -0.000 C 
BRANCH   8   9
ATOM      9  C   UNL     1      15.445  -5.353  14.109  1.00  0.00    -0.000 C 
BRANCH   9  10
ATOM     10  C   UNL     1      16.867  -5.763  14.574  1.00  0.00    -0.000 C 
BRANCH  10  11
ATOM     11  C   UNL     1      17.437  -4.801  15.647  1.00  0.00    -0.003 C 
ATOM     12  C   UNL     1      17.808  -5.535  16.953  1.00  0.00     0.004 C 
ENDBRANCH  10  11
ENDBRANCH   9  10
ENDBRANCH   8   9
ENDBRANCH   7   8
ENDBRANCH   6   7
ENDBRANCH   5   6
ENDBRANCH   4   5
ENDBRANCH   3   4
ENDBRANCH   2   3
ENDBRANCH   1   2
BRANCH   1  13
ATOM     13  C   UNL     1      15.207  -7.831  18.072  1.00  0.00     0.000 C 
BRANCH  13  14
ATOM     14  C   UNL     1      13.673  -7.627  18.159  1.00  0.00     0.002 C 
BRANCH  14  15
ATOM     15  C   UNL     1      13.256  -6.170  18.464  1.00  0.00     0.029 C 
BRANCH  15  16
ATOM     16  C   UNL     1      12.401  -6.107  19.750  1.00  0.00     0.170 C 
BRANCH  16  17
ATOM     17  O   UNL     1      12.486  -7.392  20.487  1.00  0.00    -0.318 OA
BRANCH  17  18
ATOM     18  P   UNL     1      13.203  -7.645  21.946  1.00  0.00     0.268 P 
ATOM     19  O   UNL     1      12.603  -6.626  22.994  1.00  0.00    -0.756 OA
ATOM     20  O   UNL     1      12.976  -9.026  22.378  1.00  0.00    -0.276 OA
BRANCH  18  21
ATOM     21  O   UNL     1      14.757  -7.358  21.773  1.00  0.00    -0.312 OA
BRANCH  21  22
ATOM     22  C   UNL     1      15.357  -6.675  22.897  1.00  0.00     0.231 C 
BRANCH  22  23
ATOM     23  C   UNL     1      16.449  -7.602  23.487  1.00  0.00     0.292 C 
BRANCH  23  24
ATOM     24  N   UNL     1      17.879  -7.088  23.581  1.00  0.00    -0.329 N 
ATOM     25  C   UNL     1      18.717  -7.880  22.599  1.00  0.00     0.334 C 
ATOM     26  C   UNL     1      18.447  -7.294  24.967  1.00  0.00     0.334 C 
ATOM     27  C   UNL     1      17.967  -5.626  23.210  1.00  0.00     0.334 C 
ENDBRANCH  23  24
ENDBRANCH  22  23
ENDBRANCH  21  22
ENDBRANCH  18  21
ENDBRANCH  17  18
ENDBRANCH  16  17
ENDBRANCH  15  16
ENDBRANCH  14  15
ENDBRANCH  13  14
ENDBRANCH   1  13
TORSDOF 20
ENDMDL
MODEL 6
REMARK VINA RESULT:    -5.679      4.218      9.936
REMARK INTER + INTRA:         -15.012
REMARK INTER:                 -13.263
REMARK INTRA:                  -1.749
REMARK UNBOUND:                -2.693
REMARK SMILES CCCCCCCCCCCCCCCCO[P@](=O)([O-])OCC[N+](C)(C)C
REMARK SMILES IDX 12 1 11 2 10 3 9 4 8 5 7 6 6 7 5 8 4 9 3 10 2 11 1 12 13 13
REMARK SMILES IDX 14 14 15 15 16 16 17 17 18 18 20 19 19 20 21 21 22 22 23 23
REMARK SMILES IDX 24 24 25 25 26 26 27 27
REMARK H PARENT
REMARK Flexibility Score: inf
ROOT
ATOM      1  C   UNL     1      11.509  -8.875  13.269  1.00  0.00     0.000 C 
ENDROOT
BRANCH   1   2
ATOM      2  C   UNL     1      10.366  -7.906  12.873  1.00  0.00     0.000 C 
BRANCH   2   3
ATOM      3  C   UNL     1       9.432  -8.560  11.818  1.00  0.00     0.000 C 
BRANCH   3   4
ATOM      4  C   UNL     1       7.954  -8.647  12.275  1.00  0.00     0.000 C 
BRANCH   4   5
ATOM      5  C   UNL     1       6.948  -8.366  11.127  1.00  0.00    -0.000 C 
BRANCH   5   6
ATOM      6  C   UNL     1       7.624  -7.633   9.937  1.00  0.00    -0.000 C 
BRANCH   6   7
ATOM      7  C   UNL     1       6.768  -6.477   9.360  1.00  0.00    -0.000 C 
BRANCH   7   8
ATOM      8  C   UNL     1       6.940  -5.163  10.169  1.00  0.00    -0.000 C 
BRANCH   8   9
ATOM      9  C   UNL     1       7.890  -4.159   9.467  1.00  0.00    -0.000 C 
BRANCH   9  10
ATOM     10  C   UNL     1       8.905  -3.520  10.450  1.00  0.00    -0.000 C 
BRANCH  10  11
ATOM     11  C   UNL     1       9.832  -4.573  11.108  1.00  0.00    -0.003 C 
ATOM     12  C   UNL     1       9.730  -4.562  12.648  1.00  0.00     0.004 C 
ENDBRANCH  10  11
ENDBRANCH   9  10
ENDBRANCH   8   9
ENDBRANCH   7   8
ENDBRANCH   6   7
ENDBRANCH   5   6
ENDBRANCH   4   5
ENDBRANCH   3   4
ENDBRANCH   2   3
ENDBRANCH   1   2
BRANCH   1  13
ATOM     13  C   UNL     1      12.573  -8.255  14.208  1.00  0.00     0.000 C 
BRANCH  13  14
ATOM     14  C   UNL     1      12.426  -6.712  14.238  1.00  0.00     0.002 C 
BRANCH  14  15
ATOM     15  C   UNL     1      13.769  -5.964  14.403  1.00  0.00     0.029 C 
BRANCH  15  16
ATOM     16  C   UNL     1      14.736  -6.772  15.299  1.00  0.00     0.170 C 
BRANCH  16  17
ATOM     17  O   UNL     1      14.618  -6.331  16.711  1.00  0.00    -0.318 OA
BRANCH  17  18
ATOM     18  P   UNL     1      13.933  -7.169  17.950  1.00  0.00     0.268 P 
ATOM     19  O   UNL     1      12.381  -7.301  17.682  1.00  0.00    -0.756 OA
ATOM     20  O   UNL     1      14.554  -8.491  18.060  1.00  0.00    -0.276 OA
BRANCH  18  21
ATOM     21  O   UNL     1      14.160  -6.328  19.280  1.00  0.00    -0.312 OA
BRANCH  21  22
ATOM     22  C   UNL     1      14.842  -7.056  20.327  1.00  0.00     0.231 C 
BRANCH  22  23
ATOM     23  C   UNL     1      13.778  -7.508  21.360  1.00  0.00     0.292 C 
BRANCH  23  24
ATOM     24  N   UNL     1      14.100  -7.399  22.843  1.00  0.00    -0.329 N 
ATOM     25  C   UNL     1      12.786  -7.339  23.595  1.00  0.00     0.334 C 
ATOM     26  C   UNL     1      14.879  -6.140  23.146  1.00  0.00     0.334 C 
ATOM     27  C   UNL     1      14.872  -8.603  23.331  1.00  0.00     0.334 C 
ENDBRANCH  23  24
ENDBRANCH  22  23
ENDBRANCH  21  22
ENDBRANCH  18  21
ENDBRANCH  17  18
ENDBRANCH  16  17
ENDBRANCH  15  16
ENDBRANCH  14  15
ENDBRANCH  13  14
ENDBRANCH   1  13
TORSDOF 20
ENDMDL
MODEL 7
REMARK VINA RESULT:    -5.665      5.169      8.417
REMARK INTER + INTRA:         -14.982
REMARK INTER:                 -12.483
REMARK INTRA:                  -2.499
REMARK UNBOUND:                -2.693
REMARK SMILES CCCCCCCCCCCCCCCCO[P@](=O)([O-])OCC[N+](C)(C)C
REMARK SMILES IDX 12 1 11 2 10 3 9 4 8 5 7 6 6 7 5 8 4 9 3 10 2 11 1 12 13 13
REMARK SMILES IDX 14 14 15 15 16 16 17 17 18 18 20 19 19 20 21 21 22 22 23 23
REMARK SMILES IDX 24 24 25 25 26 26 27 27
REMARK H PARENT
REMARK Flexibility Score: inf
ROOT
ATOM      1  C   UNL     1      12.999  -5.576  16.475  1.00  0.00     0.000 C 
ENDROOT
BRANCH   1   2
ATOM      2  C   UNL     1      13.052  -5.952  14.971  1.00  0.00     0.000 C 
BRANCH   2   3
ATOM      3  C   UNL     1      12.154  -7.186  14.681  1.00  0.00     0.000 C 
BRANCH   3   4
ATOM      4  C   UNL     1      12.958  -8.463  14.333  1.00  0.00     0.000 C 
BRANCH   4   5
ATOM      5  C   UNL     1      14.490  -8.279  14.502  1.00  0.00    -0.000 C 
BRANCH   5   6
ATOM      6  C   UNL     1      15.224  -9.643  14.603  1.00  0.00    -0.000 C 
BRANCH   6   7
ATOM      7  C   UNL     1      16.118  -9.768  15.864  1.00  0.00    -0.000 C 
BRANCH   7   8
ATOM      8  C   UNL     1      15.447  -9.147  17.118  1.00  0.00    -0.000 C 
BRANCH   8   9
ATOM      9  C   UNL     1      16.356  -8.102  17.816  1.00  0.00    -0.000 C 
BRANCH   9  10
ATOM     10  C   UNL     1      17.239  -7.321  16.808  1.00  0.00    -0.000 C 
BRANCH  10  11
ATOM     11  C   UNL     1      16.720  -5.882  16.560  1.00  0.00    -0.003 C 
ATOM     12  C   UNL     1      16.729  -5.506  15.063  1.00  0.00     0.004 C 
ENDBRANCH  10  11
ENDBRANCH   9  10
ENDBRANCH   8   9
ENDBRANCH   7   8
ENDBRANCH   6   7
ENDBRANCH   5   6
ENDBRANCH   4   5
ENDBRANCH   3   4
ENDBRANCH   2   3
ENDBRANCH   1   2
BRANCH   1  13
ATOM     13  C   UNL     1      12.663  -6.759  17.415  1.00  0.00     0.000 C 
BRANCH  13  14
ATOM     14  C   UNL     1      13.394  -6.589  18.771  1.00  0.00     0.002 C 
BRANCH  14  15
ATOM     15  C   UNL     1      12.454  -6.216  19.941  1.00  0.00     0.029 C 
BRANCH  15  16
ATOM     16  C   UNL     1      12.453  -7.330  21.014  1.00  0.00     0.170 C 
BRANCH  16  17
ATOM     17  O   UNL     1      12.531  -6.736  22.371  1.00  0.00    -0.318 OA
BRANCH  17  18
ATOM     18  P   UNL     1      13.005  -7.493  23.753  1.00  0.00     0.268 P 
ATOM     19  O   UNL     1      11.966  -7.163  24.898  1.00  0.00    -0.756 OA
ATOM     20  O   UNL     1      13.083  -8.938  23.525  1.00  0.00    -0.276 OA
BRANCH  18  21
ATOM     21  O   UNL     1      14.427  -6.909  24.157  1.00  0.00    -0.312 OA
BRANCH  21  22
ATOM     22  C   UNL     1      15.429  -7.035  23.123  1.00  0.00     0.231 C 
BRANCH  22  23
ATOM     23  C   UNL     1      16.614  -6.108  23.496  1.00  0.00     0.292 C 
BRANCH  23  24
ATOM     24  N   UNL     1      17.902  -6.199  22.690  1.00  0.00    -0.329 N 
ATOM     25  C   UNL     1      19.016  -5.622  23.538  1.00  0.00     0.334 C 
ATOM     26  C   UNL     1      17.810  -5.395  21.414  1.00  0.00     0.334 C 
ATOM     27  C   UNL     1      18.249  -7.633  22.361  1.00  0.00     0.334 C 
ENDBRANCH  23  24
ENDBRANCH  22  23
ENDBRANCH  21  22
ENDBRANCH  18  21
ENDBRANCH  17  18
ENDBRANCH  16  17
ENDBRANCH  15  16
ENDBRANCH  14  15
ENDBRANCH  13  14
ENDBRANCH   1  13
TORSDOF 20
ENDMDL
MODEL 8
REMARK VINA RESULT:    -5.652      5.290      8.762
REMARK INTER + INTRA:         -14.954
REMARK INTER:                 -12.590
REMARK INTRA:                  -2.364
REMARK UNBOUND:                -2.693
REMARK SMILES CCCCCCCCCCCCCCCCO[P@](=O)([O-])OCC[N+](C)(C)C
REMARK SMILES IDX 12 1 11 2 10 3 9 4 8 5 7 6 6 7 5 8 4 9 3 10 2 11 1 12 13 13
REMARK SMILES IDX 14 14 15 15 16 16 17 17 18 18 20 19 19 20 21 21 22 22 23 23
REMARK SMILES IDX 24 24 25 25 26 26 27 27
REMARK H PARENT
REMARK Flexibility Score: inf
ROOT
ATOM      1  C   UNL     1      13.854  -6.055  16.758  1.00  0.00     0.000 C 
ENDROOT
BRANCH   1   2
ATOM      2  C   UNL     1      12.752  -5.441  15.856  1.00  0.00     0.000 C 
BRANCH   2   3
ATOM      3  C   UNL     1      12.565  -6.286  14.566  1.00  0.00     0.000 C 
BRANCH   3   4
ATOM      4  C   UNL     1      12.208  -7.767  14.847  1.00  0.00     0.000 C 
BRANCH   4   5
ATOM      5  C   UNL     1      13.094  -8.765  14.054  1.00  0.00    -0.000 C 
BRANCH   5   6
ATOM      6  C   UNL     1      14.592  -8.632  14.437  1.00  0.00    -0.000 C 
BRANCH   6   7
ATOM      7  C   UNL     1      15.111  -9.804  15.308  1.00  0.00    -0.000 C 
BRANCH   7   8
ATOM      8  C   UNL     1      16.441  -9.453  16.027  1.00  0.00    -0.000 C 
BRANCH   8   9
ATOM      9  C   UNL     1      17.179  -8.267  15.356  1.00  0.00    -0.000 C 
BRANCH   9  10
ATOM     10  C   UNL     1      17.571  -7.164  16.373  1.00  0.00    -0.000 C 
BRANCH  10  11
ATOM     11  C   UNL     1      17.277  -5.738  15.841  1.00  0.00    -0.003 C 
ATOM     12  C   UNL     1      16.693  -5.756  14.413  1.00  0.00     0.004 C 
ENDBRANCH  10  11
ENDBRANCH   9  10
ENDBRANCH   8   9
ENDBRANCH   7   8
ENDBRANCH   6   7
ENDBRANCH   5   6
ENDBRANCH   4   5
ENDBRANCH   3   4
ENDBRANCH   2   3
ENDBRANCH   1   2
BRANCH   1  13
ATOM     13  C   UNL     1      13.345  -6.566  18.128  1.00  0.00     0.000 C 
BRANCH  13  14
ATOM     14  C   UNL     1      14.252  -7.713  18.641  1.00  0.00     0.002 C 
BRANCH  14  15
ATOM     15  C   UNL     1      14.393  -7.751  20.181  1.00  0.00     0.029 C 
BRANCH  15  16
ATOM     16  C   UNL     1      13.829  -6.457  20.811  1.00  0.00     0.170 C 
BRANCH  16  17
ATOM     17  O   UNL     1      12.942  -6.785  21.953  1.00  0.00    -0.318 OA
BRANCH  17  18
ATOM     18  P   UNL     1      13.392  -7.435  23.396  1.00  0.00     0.268 P 
ATOM     19  O   UNL     1      12.899  -6.486  24.560  1.00  0.00    -0.756 OA
ATOM     20  O   UNL     1      12.816  -8.774  23.540  1.00  0.00    -0.276 OA
BRANCH  18  21
ATOM     21  O   UNL     1      14.980  -7.501  23.418  1.00  0.00    -0.312 OA
BRANCH  21  22
ATOM     22  C   UNL     1      15.510  -8.830  23.627  1.00  0.00     0.231 C 
BRANCH  22  23
ATOM     23  C   UNL     1      16.960  -8.853  23.079  1.00  0.00     0.292 C 
BRANCH  23  24
ATOM     24  N   UNL     1      18.026  -9.620  23.848  1.00  0.00    -0.329 N 
ATOM     25  C   UNL     1      17.867 -11.089  23.513  1.00  0.00     0.334 C 
ATOM     26  C   UNL     1      17.856  -9.451  25.340  1.00  0.00     0.334 C 
ATOM     27  C   UNL     1      19.417  -9.188  23.445  1.00  0.00     0.334 C 
ENDBRANCH  23  24
ENDBRANCH  22  23
ENDBRANCH  21  22
ENDBRANCH  18  21
ENDBRANCH  17  18
ENDBRANCH  16  17
ENDBRANCH  15  16
ENDBRANCH  14  15
ENDBRANCH  13  14
ENDBRANCH   1  13
TORSDOF 20
ENDMDL
MODEL 9
REMARK VINA RESULT:    -5.624      5.194      7.712
REMARK INTER + INTRA:         -14.892
REMARK INTER:                 -12.301
REMARK INTRA:                  -2.591
REMARK UNBOUND:                -2.693
REMARK SMILES CCCCCCCCCCCCCCCCO[P@](=O)([O-])OCC[N+](C)(C)C
REMARK SMILES IDX 12 1 11 2 10 3 9 4 8 5 7 6 6 7 5 8 4 9 3 10 2 11 1 12 13 13
REMARK SMILES IDX 14 14 15 15 16 16 17 17 18 18 20 19 19 20 21 21 22 22 23 23
REMARK SMILES IDX 24 24 25 25 26 26 27 27
REMARK H PARENT
REMARK Flexibility Score: inf
ROOT
ATOM      1  C   UNL     1      15.363  -9.144  17.531  1.00  0.00     0.000 C 
ENDROOT
BRANCH   1   2
ATOM      2  C   UNL     1      15.703  -9.620  16.095  1.00  0.00     0.000 C 
BRANCH   2   3
ATOM      3  C   UNL     1      14.766  -8.946  15.056  1.00  0.00     0.000 C 
BRANCH   3   4
ATOM      4  C   UNL     1      15.510  -8.436  13.796  1.00  0.00     0.000 C 
BRANCH   4   5
ATOM      5  C   UNL     1      16.722  -7.526  14.136  1.00  0.00    -0.000 C 
BRANCH   5   6
ATOM      6  C   UNL     1      16.268  -6.153  14.700  1.00  0.00    -0.000 C 
BRANCH   6   7
ATOM      7  C   UNL     1      17.302  -5.511  15.660  1.00  0.00    -0.000 C 
BRANCH   7   8
ATOM      8  C   UNL     1      16.805  -5.501  17.130  1.00  0.00    -0.000 C 
BRANCH   8   9
ATOM      9  C   UNL     1      17.944  -5.794  18.140  1.00  0.00    -0.000 C 
BRANCH   9  10
ATOM     10  C   UNL     1      19.327  -5.923  17.449  1.00  0.00    -0.000 C 
BRANCH  10  11
ATOM     11  C   UNL     1      20.014  -7.279  17.754  1.00  0.00    -0.003 C 
ATOM     12  C   UNL     1      19.003  -8.367  18.171  1.00  0.00     0.004 C 
ENDBRANCH  10  11
ENDBRANCH   9  10
ENDBRANCH   8   9
ENDBRANCH   7   8
ENDBRANCH   6   7
ENDBRANCH   5   6
ENDBRANCH   4   5
ENDBRANCH   3   4
ENDBRANCH   2   3
ENDBRANCH   1   2
BRANCH   1  13
ATOM     13  C   UNL     1      14.360  -7.967  17.590  1.00  0.00     0.000 C 
BRANCH  13  14
ATOM     14  C   UNL     1      14.219  -7.456  19.047  1.00  0.00     0.002 C 
BRANCH  14  15
ATOM     15  C   UNL     1      12.969  -6.575  19.278  1.00  0.00     0.029 C 
BRANCH  15  16
ATOM     16  C   UNL     1      12.243  -6.991  20.577  1.00  0.00     0.170 C 
BRANCH  16  17
ATOM     17  O   UNL     1      12.937  -6.420  21.759  1.00  0.00    -0.318 OA
BRANCH  17  18
ATOM     18  P   UNL     1      13.134  -7.136  23.227  1.00  0.00     0.268 P 
ATOM     19  O   UNL     1      12.353  -6.295  24.314  1.00  0.00    -0.756 OA
ATOM     20  O   UNL     1      12.635  -8.513  23.180  1.00  0.00    -0.276 OA
BRANCH  18  21
ATOM     21  O   UNL     1      14.686  -7.112  23.568  1.00  0.00    -0.312 OA
BRANCH  21  22
ATOM     22  C   UNL     1      15.498  -6.465  22.563  1.00  0.00     0.231 C 
BRANCH  22  23
ATOM     23  C   UNL     1      16.540  -7.497  22.059  1.00  0.00     0.292 C 
BRANCH  23  24
ATOM     24  N   UNL     1      17.795  -7.740  22.885  1.00  0.00    -0.329 N 
ATOM     25  C   UNL     1      17.552  -8.963  23.744  1.00  0.00     0.334 C 
ATOM     26  C   UNL     1      18.089  -6.569  23.795  1.00  0.00     0.334 C 
ATOM     27  C   UNL     1      18.993  -8.009  22.003  1.00  0.00     0.334 C 
ENDBRANCH  23  24
ENDBRANCH  22  23
ENDBRANCH  21  22
ENDBRANCH  18  21
ENDBRANCH  17  18
ENDBRANCH  16  17
ENDBRANCH  15  16
ENDBRANCH  14  15
ENDBRANCH  13  14
ENDBRANCH   1  13
TORSDOF 20
ENDMDL
MODEL 10
REMARK VINA RESULT:    -5.612      5.137      8.307
REMARK INTER + INTRA:         -14.867
REMARK INTER:                 -12.757
REMARK INTRA:                  -2.110
REMARK UNBOUND:                -2.693
REMARK SMILES CCCCCCCCCCCCCCCCO[P@](=O)([O-])OCC[N+](C)(C)C
REMARK SMILES IDX 12 1 11 2 10 3 9 4 8 5 7 6 6 7 5 8 4 9 3 10 2 11 1 12 13 13
REMARK SMILES IDX 14 14 15 15 16 16 17 17 18 18 20 19 19 20 21 21 22 22 23 23
REMARK SMILES IDX 24 24 25 25 26 26 27 27
REMARK H PARENT
REMARK Flexibility Score: inf
ROOT
ATOM      1  C   UNL     1      13.128  -6.262  15.954  1.00  0.00     0.000 C 
ENDROOT
BRANCH   1   2
ATOM      2  C   UNL     1      13.651  -6.979  14.682  1.00  0.00     0.000 C 
BRANCH   2   3
ATOM      3  C   UNL     1      13.778  -8.508  14.926  1.00  0.00     0.000 C 
BRANCH   3   4
ATOM      4  C   UNL     1      15.209  -9.051  14.690  1.00  0.00     0.000 C 
BRANCH   4   5
ATOM      5  C   UNL     1      15.876  -9.586  15.986  1.00  0.00    -0.000 C 
BRANCH   5   6
ATOM      6  C   UNL     1      17.400  -9.294  16.010  1.00  0.00    -0.000 C 
BRANCH   6   7
ATOM      7  C   UNL     1      17.736  -7.781  16.029  1.00  0.00    -0.000 C 
BRANCH   7   8
ATOM      8  C   UNL     1      16.956  -7.024  17.137  1.00  0.00    -0.000 C 
BRANCH   8   9
ATOM      9  C   UNL     1      17.145  -5.488  17.047  1.00  0.00    -0.000 C 
BRANCH   9  10
ATOM     10  C   UNL     1      18.144  -4.952  18.105  1.00  0.00    -0.000 C 
BRANCH  10  11
ATOM     11  C   UNL     1      18.963  -3.744  17.585  1.00  0.00    -0.003 C 
ATOM     12  C   UNL     1      18.958  -3.654  16.044  1.00  0.00     0.004 C 
ENDBRANCH  10  11
ENDBRANCH   9  10
ENDBRANCH   8   9
ENDBRANCH   7   8
ENDBRANCH   6   7
ENDBRANCH   5   6
ENDBRANCH   4   5
ENDBRANCH   3   4
ENDBRANCH   2   3
ENDBRANCH   1   2
BRANCH   1  13
ATOM     13  C   UNL     1      12.980  -7.184  17.189  1.00  0.00     0.000 C 
BRANCH  13  14
ATOM     14  C   UNL     1      13.602  -6.511  18.438  1.00  0.00     0.002 C 
BRANCH  14  15
ATOM     15  C   UNL     1      12.572  -6.182  19.544  1.00  0.00     0.029 C 
BRANCH  15  16
ATOM     16  C   UNL     1      13.289  -5.769  20.850  1.00  0.00     0.170 C 
BRANCH  16  17
ATOM     17  O   UNL     1      12.734  -6.523  22.001  1.00  0.00    -0.318 OA
BRANCH  17  18
ATOM     18  P   UNL     1      13.045  -8.090  22.395  1.00  0.00     0.268 P 
ATOM     19  O   UNL     1      12.823  -8.280  23.948  1.00  0.00    -0.756 OA
ATOM     20  O   UNL     1      12.163  -8.978  21.633  1.00  0.00    -0.276 OA
BRANCH  18  21
ATOM     21  O   UNL     1      14.570  -8.378  22.049  1.00  0.00    -0.312 OA
BRANCH  21  22
ATOM     22  C   UNL     1      15.367  -8.768  23.189  1.00  0.00     0.231 C 
BRANCH  22  23
ATOM     23  C   UNL     1      16.729  -8.036  23.088  1.00  0.00     0.292 C 
BRANCH  23  24
ATOM     24  N   UNL     1      17.869  -8.470  23.998  1.00  0.00    -0.329 N 
ATOM     25  C   UNL     1      17.371  -9.627  24.838  1.00  0.00     0.334 C 
ATOM     26  C   UNL     1      18.286  -7.353  24.927  1.00  0.00     0.334 C 
ATOM     27  C   UNL     1      19.065  -8.939  23.202  1.00  0.00     0.334 C 
ENDBRANCH  23  24
ENDBRANCH  22  23
ENDBRANCH  21  22
ENDBRANCH  18  21
ENDBRANCH  17  18
ENDBRANCH  16  17
ENDBRANCH  15  16
ENDBRANCH  14  15
ENDBRANCH  13  14
ENDBRANCH   1  13
TORSDOF 20
ENDMDL
MODEL 11
REMARK VINA RESULT:    -5.604      5.034      8.076
REMARK INTER + INTRA:         -14.849
REMARK INTER:                 -12.367
REMARK INTRA:                  -2.482
REMARK UNBOUND:                -2.693
REMARK SMILES CCCCCCCCCCCCCCCCO[P@](=O)([O-])OCC[N+](C)(C)C
REMARK SMILES IDX 12 1 11 2 10 3 9 4 8 5 7 6 6 7 5 8 4 9 3 10 2 11 1 12 13 13
REMARK SMILES IDX 14 14 15 15 16 16 17 17 18 18 20 19 19 20 21 21 22 22 23 23
REMARK SMILES IDX 24 24 25 25 26 26 27 27
REMARK H PARENT
REMARK Flexibility Score: inf
ROOT
ATOM      1  C   UNL     1      13.156  -5.813  15.931  1.00  0.00     0.000 C 
ENDROOT
BRANCH   1   2
ATOM      2  C   UNL     1      13.505  -6.408  14.543  1.00  0.00     0.000 C 
BRANCH   2   3
ATOM      3  C   UNL     1      13.560  -7.960  14.609  1.00  0.00     0.000 C 
BRANCH   3   4
ATOM      4  C   UNL     1      14.986  -8.532  14.407  1.00  0.00     0.000 C 
BRANCH   4   5
ATOM      5  C   UNL     1      15.265  -9.784  15.283  1.00  0.00    -0.000 C 
BRANCH   5   6
ATOM      6  C   UNL     1      15.897  -9.400  16.647  1.00  0.00    -0.000 C 
BRANCH   6   7
ATOM      7  C   UNL     1      17.281  -8.715  16.512  1.00  0.00    -0.000 C 
BRANCH   7   8
ATOM      8  C   UNL     1      17.624  -7.844  17.750  1.00  0.00    -0.000 C 
BRANCH   8   9
ATOM      9  C   UNL     1      17.073  -6.400  17.627  1.00  0.00    -0.000 C 
BRANCH   9  10
ATOM     10  C   UNL     1      18.179  -5.374  17.266  1.00  0.00    -0.000 C 
BRANCH  10  11
ATOM     11  C   UNL     1      17.838  -4.565  15.988  1.00  0.00    -0.003 C 
ATOM     12  C   UNL     1      16.906  -5.341  15.034  1.00  0.00     0.004 C 
ENDBRANCH  10  11
ENDBRANCH   9  10
ENDBRANCH   8   9
ENDBRANCH   7   8
ENDBRANCH   6   7
ENDBRANCH   5   6
ENDBRANCH   4   5
ENDBRANCH   3   4
ENDBRANCH   2   3
ENDBRANCH   1   2
BRANCH   1  13
ATOM     13  C   UNL     1      12.857  -6.871  17.021  1.00  0.00     0.000 C 
BRANCH  13  14
ATOM     14  C   UNL     1      13.550  -6.479  18.351  1.00  0.00     0.002 C 
BRANCH  14  15
ATOM     15  C   UNL     1      12.570  -6.314  19.536  1.00  0.00     0.029 C 
BRANCH  15  16
ATOM     16  C   UNL     1      13.328  -5.884  20.813  1.00  0.00     0.170 C 
BRANCH  16  17
ATOM     17  O   UNL     1      12.834  -4.567  21.285  1.00  0.00    -0.318 OA
BRANCH  17  18
ATOM     18  P   UNL     1      13.245  -3.803  22.683  1.00  0.00     0.268 P 
ATOM     19  O   UNL     1      12.134  -2.732  23.025  1.00  0.00    -0.756 OA
ATOM     20  O   UNL     1      13.371  -4.783  23.766  1.00  0.00    -0.276 OA
BRANCH  18  21
ATOM     21  O   UNL     1      14.627  -3.058  22.435  1.00  0.00    -0.312 OA
BRANCH  21  22
ATOM     22  C   UNL     1      15.704  -3.521  23.280  1.00  0.00     0.231 C 
BRANCH  22  23
ATOM     23  C   UNL     1      16.839  -4.039  22.361  1.00  0.00     0.292 C 
BRANCH  23  24
ATOM     24  N   UNL     1      17.387  -5.441  22.584  1.00  0.00    -0.329 N 
ATOM     25  C   UNL     1      16.714  -6.006  23.817  1.00  0.00     0.334 C 
ATOM     26  C   UNL     1      18.879  -5.417  22.824  1.00  0.00     0.334 C 
ATOM     27  C   UNL     1      17.077  -6.348  21.415  1.00  0.00     0.334 C 
ENDBRANCH  23  24
ENDBRANCH  22  23
ENDBRANCH  21  22
ENDBRANCH  18  21
ENDBRANCH  17  18
ENDBRANCH  16  17
ENDBRANCH  15  16
ENDBRANCH  14  15
ENDBRANCH  13  14
ENDBRANCH   1  13
TORSDOF 20
ENDMDL
MODEL 12
REMARK VINA RESULT:    -5.592      4.306      8.902
REMARK INTER + INTRA:         -14.823
REMARK INTER:                 -12.663
REMARK INTRA:                  -2.160
REMARK UNBOUND:                -2.693
REMARK SMILES CCCCCCCCCCCCCCCCO[P@](=O)([O-])OCC[N+](C)(C)C
REMARK SMILES IDX 12 1 11 2 10 3 9 4 8 5 7 6 6 7 5 8 4 9 3 10 2 11 1 12 13 13
REMARK SMILES IDX 14 14 15 15 16 16 17 17 18 18 20 19 19 20 21 21 22 22 23 23
REMARK SMILES IDX 24 24 25 25 26 26 27 27
REMARK H PARENT
REMARK Flexibility Score: inf
ROOT
ATOM      1  C   UNL     1      15.347  -8.521  17.853  1.00  0.00     0.000 C 
ENDROOT
BRANCH   1   2
ATOM      2  C   UNL     1      15.691  -9.496  16.698  1.00  0.00     0.000 C 
BRANCH   2   3
ATOM      3  C   UNL     1      16.398  -8.744  15.536  1.00  0.00     0.000 C 
BRANCH   3   4
ATOM      4  C   UNL     1      15.491  -8.534  14.298  1.00  0.00     0.000 C 
BRANCH   4   5
ATOM      5  C   UNL     1      14.056  -9.092  14.497  1.00  0.00    -0.000 C 
BRANCH   5   6
ATOM      6  C   UNL     1      12.975  -8.035  14.146  1.00  0.00    -0.000 C 
BRANCH   6   7
ATOM      7  C   UNL     1      11.534  -8.607  14.147  1.00  0.00    -0.000 C 
BRANCH   7   8
ATOM      8  C   UNL     1      11.023  -8.902  12.711  1.00  0.00    -0.000 C 
BRANCH   8   9
ATOM      9  C   UNL     1       9.649  -8.241  12.426  1.00  0.00    -0.000 C 
BRANCH   9  10
ATOM     10  C   UNL     1       9.763  -7.041  11.450  1.00  0.00    -0.000 C 
BRANCH  10  11
ATOM     11  C   UNL     1      10.318  -5.770  12.141  1.00  0.00    -0.003 C 
ATOM     12  C   UNL     1       9.512  -5.387  13.399  1.00  0.00     0.004 C 
ENDBRANCH  10  11
ENDBRANCH   9  10
ENDBRANCH   8   9
ENDBRANCH   7   8
ENDBRANCH   6   7
ENDBRANCH   5   6
ENDBRANCH   4   5
ENDBRANCH   3   4
ENDBRANCH   2   3
ENDBRANCH   1   2
BRANCH   1  13
ATOM     13  C   UNL     1      15.749  -7.050  17.586  1.00  0.00     0.000 C 
BRANCH  13  14
ATOM     14  C   UNL     1      14.483  -6.165  17.455  1.00  0.00     0.002 C 
BRANCH  14  15
ATOM     15  C   UNL     1      13.175  -6.889  17.851  1.00  0.00     0.029 C 
BRANCH  15  16
ATOM     16  C   UNL     1      12.570  -6.260  19.127  1.00  0.00     0.170 C 
BRANCH  16  17
ATOM     17  O   UNL     1      12.251  -7.316  20.119  1.00  0.00    -0.318 OA
BRANCH  17  18
ATOM     18  P   UNL     1      13.003  -7.576  21.559  1.00  0.00     0.268 P 
ATOM     19  O   UNL     1      12.572  -6.442  22.572  1.00  0.00    -0.756 OA
ATOM     20  O   UNL     1      12.643  -8.898  22.077  1.00  0.00    -0.276 OA
BRANCH  18  21
ATOM     21  O   UNL     1      14.570  -7.479  21.306  1.00  0.00    -0.312 OA
BRANCH  21  22
ATOM     22  C   UNL     1      15.343  -7.230  22.501  1.00  0.00     0.231 C 
BRANCH  22  23
ATOM     23  C   UNL     1      16.159  -5.931  22.276  1.00  0.00     0.292 C 
BRANCH  23  24
ATOM     24  N   UNL     1      17.619  -6.041  21.858  1.00  0.00    -0.329 N 
ATOM     25  C   UNL     1      18.446  -5.282  22.874  1.00  0.00     0.334 C 
ATOM     26  C   UNL     1      17.849  -5.423  20.498  1.00  0.00     0.334 C 
ATOM     27  C   UNL     1      18.083  -7.480  21.846  1.00  0.00     0.334 C 
ENDBRANCH  23  24
ENDBRANCH  22  23
ENDBRANCH  21  22
ENDBRANCH  18  21
ENDBRANCH  17  18
ENDBRANCH  16  17
ENDBRANCH  15  16
ENDBRANCH  14  15
ENDBRANCH  13  14
ENDBRANCH   1  13
TORSDOF 20
ENDMDL
MODEL 13
REMARK VINA RESULT:    -5.579      4.937      8.311
REMARK INTER + INTRA:         -14.796
REMARK INTER:                 -11.756
REMARK INTRA:                  -3.040
REMARK UNBOUND:                -2.693
REMARK SMILES CCCCCCCCCCCCCCCCO[P@](=O)([O-])OCC[N+](C)(C)C
REMARK SMILES IDX 12 1 11 2 10 3 9 4 8 5 7 6 6 7 5 8 4 9 3 10 2 11 1 12 13 13
REMARK SMILES IDX 14 14 15 15 16 16 17 17 18 18 20 19 19 20 21 21 22 22 23 23
REMARK SMILES IDX 24 24 25 25 26 26 27 27
REMARK H PARENT
REMARK Flexibility Score: inf
ROOT
ATOM      1  C   UNL     1      15.468  -7.231  17.918  1.00  0.00     0.000 C 
ENDROOT
BRANCH   1   2
ATOM      2  C   UNL     1      14.911  -8.617  17.504  1.00  0.00     0.000 C 
BRANCH   2   3
ATOM      3  C   UNL     1      15.920  -9.363  16.588  1.00  0.00     0.000 C 
BRANCH   3   4
ATOM      4  C   UNL     1      17.337  -8.738  16.596  1.00  0.00     0.000 C 
BRANCH   4   5
ATOM      5  C   UNL     1      17.808  -8.286  15.188  1.00  0.00    -0.000 C 
BRANCH   5   6
ATOM      6  C   UNL     1      16.698  -7.504  14.435  1.00  0.00    -0.000 C 
BRANCH   6   7
ATOM      7  C   UNL     1      16.715  -5.981  14.723  1.00  0.00    -0.000 C 
BRANCH   7   8
ATOM      8  C   UNL     1      15.323  -5.331  14.505  1.00  0.00    -0.000 C 
BRANCH   8   9
ATOM      9  C   UNL     1      14.240  -6.370  14.117  1.00  0.00    -0.000 C 
BRANCH   9  10
ATOM     10  C   UNL     1      12.948  -6.221  14.963  1.00  0.00    -0.000 C 
BRANCH  10  11
ATOM     11  C   UNL     1      12.197  -7.566  15.134  1.00  0.00    -0.003 C 
ATOM     12  C   UNL     1      12.860  -8.712  14.341  1.00  0.00     0.004 C 
ENDBRANCH  10  11
ENDBRANCH   9  10
ENDBRANCH   8   9
ENDBRANCH   7   8
ENDBRANCH   6   7
ENDBRANCH   5   6
ENDBRANCH   4   5
ENDBRANCH   3   4
ENDBRANCH   2   3
ENDBRANCH   1   2
BRANCH   1  13
ATOM     13  C   UNL     1      14.381  -6.192  18.288  1.00  0.00     0.000 C 
BRANCH  13  14
ATOM     14  C   UNL     1      13.086  -6.912  18.744  1.00  0.00     0.002 C 
BRANCH  14  15
ATOM     15  C   UNL     1      12.241  -6.091  19.747  1.00  0.00     0.029 C 
BRANCH  15  16
ATOM     16  C   UNL     1      12.970  -5.973  21.104  1.00  0.00     0.170 C 
BRANCH  16  17
ATOM     17  O   UNL     1      12.911  -7.264  21.834  1.00  0.00    -0.318 OA
BRANCH  17  18
ATOM     18  P   UNL     1      13.321  -7.528  23.405  1.00  0.00     0.268 P 
ATOM     19  O   UNL     1      13.878  -6.183  24.020  1.00  0.00    -0.756 OA
ATOM     20  O   UNL     1      12.151  -7.995  24.153  1.00  0.00    -0.276 OA
BRANCH  18  21
ATOM     21  O   UNL     1      14.473  -8.624  23.422  1.00  0.00    -0.312 OA
BRANCH  21  22
ATOM     22  C   UNL     1      15.518  -8.393  22.449  1.00  0.00     0.231 C 
BRANCH  22  23
ATOM     23  C   UNL     1      16.660  -7.619  23.155  1.00  0.00     0.292 C 
BRANCH  23  24
ATOM     24  N   UNL     1      17.542  -6.692  22.330  1.00  0.00    -0.329 N 
ATOM     25  C   UNL     1      16.634  -5.845  21.464  1.00  0.00     0.334 C 
ATOM     26  C   UNL     1      18.467  -7.474  21.427  1.00  0.00     0.334 C 
ATOM     27  C   UNL     1      18.354  -5.772  23.212  1.00  0.00     0.334 C 
ENDBRANCH  23  24
ENDBRANCH  22  23
ENDBRANCH  21  22
ENDBRANCH  18  21
ENDBRANCH  17  18
ENDBRANCH  16  17
ENDBRANCH  15  16
ENDBRANCH  14  15
ENDBRANCH  13  14
ENDBRANCH   1  13
TORSDOF 20
ENDMDL
MODEL 14
REMARK VINA RESULT:    -5.564      4.868     10.405
REMARK INTER + INTRA:         -14.762
REMARK INTER:                 -12.978
REMARK INTRA:                  -1.784
REMARK UNBOUND:                -2.693
REMARK SMILES CCCCCCCCCCCCCCCCO[P@](=O)([O-])OCC[N+](C)(C)C
REMARK SMILES IDX 12 1 11 2 10 3 9 4 8 5 7 6 6 7 5 8 4 9 3 10 2 11 1 12 13 13
REMARK SMILES IDX 14 14 15 15 16 16 17 17 18 18 20 19 19 20 21 21 22 22 23 23
REMARK SMILES IDX 24 24 25 25 26 26 27 27
REMARK H PARENT
REMARK Flexibility Score: inf
ROOT
ATOM      1  C   UNL     1      12.849  -7.399  13.926  1.00  0.00     0.000 C 
ENDROOT
BRANCH   1   2
ATOM      2  C   UNL     1      12.139  -8.744  14.229  1.00  0.00     0.000 C 
BRANCH   2   3
ATOM      3  C   UNL     1      11.147  -9.110  13.091  1.00  0.00     0.000 C 
BRANCH   3   4
ATOM      4  C   UNL     1      10.374  -7.888  12.533  1.00  0.00     0.000 C 
BRANCH   4   5
ATOM      5  C   UNL     1       9.433  -8.255  11.354  1.00  0.00    -0.000 C 
BRANCH   5   6
ATOM      6  C   UNL     1       8.034  -8.702  11.855  1.00  0.00    -0.000 C 
BRANCH   6   7
ATOM      7  C   UNL     1       6.873  -8.222  10.946  1.00  0.00    -0.000 C 
BRANCH   7   8
ATOM      8  C   UNL     1       7.294  -7.034  10.041  1.00  0.00    -0.000 C 
BRANCH   8   9
ATOM      9  C   UNL     1       6.627  -5.701  10.468  1.00  0.00    -0.000 C 
BRANCH   9  10
ATOM     10  C   UNL     1       7.513  -4.883  11.443  1.00  0.00    -0.000 C 
BRANCH  10  11
ATOM     11  C   UNL     1       8.835  -4.411  10.785  1.00  0.00    -0.003 C 
ATOM     12  C   UNL     1       9.992  -4.311  11.801  1.00  0.00     0.004 C 
ENDBRANCH  10  11
ENDBRANCH   9  10
ENDBRANCH   8   9
ENDBRANCH   7   8
ENDBRANCH   6   7
ENDBRANCH   5   6
ENDBRANCH   4   5
ENDBRANCH   3   4
ENDBRANCH   2   3
ENDBRANCH   1   2
BRANCH   1  13
ATOM     13  C   UNL     1      12.745  -6.354  15.063  1.00  0.00     0.000 C 
BRANCH  13  14
ATOM     14  C   UNL     1      12.497  -7.061  16.420  1.00  0.00     0.002 C 
BRANCH  14  15
ATOM     15  C   UNL     1      13.116  -6.321  17.628  1.00  0.00     0.029 C 
BRANCH  15  16
ATOM     16  C   UNL     1      13.768  -7.326  18.606  1.00  0.00     0.170 C 
BRANCH  16  17
ATOM     17  O   UNL     1      13.510  -6.918  20.009  1.00  0.00    -0.318 OA
BRANCH  17  18
ATOM     18  P   UNL     1      13.599  -7.874  21.345  1.00  0.00     0.268 P 
ATOM     19  O   UNL     1      12.209  -8.599  21.547  1.00  0.00    -0.756 OA
ATOM     20  O   UNL     1      14.676  -8.854  21.185  1.00  0.00    -0.276 OA
BRANCH  18  21
ATOM     21  O   UNL     1      13.878  -6.929  22.593  1.00  0.00    -0.312 OA
BRANCH  21  22
ATOM     22  C   UNL     1      14.769  -5.827  22.308  1.00  0.00     0.231 C 
BRANCH  22  23
ATOM     23  C   UNL     1      15.919  -5.866  23.347  1.00  0.00     0.292 C 
BRANCH  23  24
ATOM     24  N   UNL     1      17.222  -6.559  22.977  1.00  0.00    -0.329 N 
ATOM     25  C   UNL     1      17.330  -6.559  21.466  1.00  0.00     0.334 C 
ATOM     26  C   UNL     1      17.238  -7.993  23.455  1.00  0.00     0.334 C 
ATOM     27  C   UNL     1      18.418  -5.825  23.539  1.00  0.00     0.334 C 
ENDBRANCH  23  24
ENDBRANCH  22  23
ENDBRANCH  21  22
ENDBRANCH  18  21
ENDBRANCH  17  18
ENDBRANCH  16  17
ENDBRANCH  15  16
ENDBRANCH  14  15
ENDBRANCH  13  14
ENDBRANCH   1  13
TORSDOF 20
ENDMDL
MODEL 15
REMARK VINA RESULT:    -5.553      4.945      8.167
REMARK INTER + INTRA:         -14.738
REMARK INTER:                 -12.637
REMARK INTRA:                  -2.101
REMARK UNBOUND:                -2.693
REMARK SMILES CCCCCCCCCCCCCCCCO[P@](=O)([O-])OCC[N+](C)(C)C
REMARK SMILES IDX 12 1 11 2 10 3 9 4 8 5 7 6 6 7 5 8 4 9 3 10 2 11 1 12 13 13
REMARK SMILES IDX 14 14 15 15 16 16 17 17 18 18 20 19 19 20 21 21 22 22 23 23
REMARK SMILES IDX 24 24 25 25 26 26 27 27
REMARK H PARENT
REMARK Flexibility Score: inf
ROOT
ATOM      1  C   UNL     1      12.736  -5.988  16.016  1.00  0.00     0.000 C 
ENDROOT
BRANCH   1   2
ATOM      2  C   UNL     1      13.300  -6.355  14.619  1.00  0.00     0.000 C 
BRANCH   2   3
ATOM      3  C   UNL     1      12.616  -7.637  14.069  1.00  0.00     0.000 C 
BRANCH   3   4
ATOM      4  C   UNL     1      13.390  -8.937  14.401  1.00  0.00     0.000 C 
BRANCH   4   5
ATOM      5  C   UNL     1      14.931  -8.745  14.387  1.00  0.00    -0.000 C 
BRANCH   5   6
ATOM      6  C   UNL     1      15.591  -9.310  15.673  1.00  0.00    -0.000 C 
BRANCH   6   7
ATOM      7  C   UNL     1      17.074  -8.890  15.837  1.00  0.00    -0.000 C 
BRANCH   7   8
ATOM      8  C   UNL     1      17.353  -7.486  15.237  1.00  0.00    -0.000 C 
BRANCH   8   9
ATOM      9  C   UNL     1      17.228  -6.357  16.294  1.00  0.00    -0.000 C 
BRANCH   9  10
ATOM     10  C   UNL     1      17.528  -4.957  15.700  1.00  0.00    -0.000 C 
BRANCH  10  11
ATOM     11  C   UNL     1      18.575  -4.174  16.533  1.00  0.00    -0.003 C 
ATOM     12  C   UNL     1      19.358  -3.154  15.681  1.00  0.00     0.004 C 
ENDBRANCH  10  11
ENDBRANCH   9  10
ENDBRANCH   8   9
ENDBRANCH   7   8
ENDBRANCH   6   7
ENDBRANCH   5   6
ENDBRANCH   4   5
ENDBRANCH   3   4
ENDBRANCH   2   3
ENDBRANCH   1   2
BRANCH   1  13
ATOM     13  C   UNL     1      13.791  -5.991  17.149  1.00  0.00     0.000 C 
BRANCH  13  14
ATOM     14  C   UNL     1      13.401  -7.019  18.241  1.00  0.00     0.002 C 
BRANCH  14  15
ATOM     15  C   UNL     1      13.621  -6.506  19.684  1.00  0.00     0.029 C 
BRANCH  15  16
ATOM     16  C   UNL     1      12.617  -7.168  20.655  1.00  0.00     0.170 C 
BRANCH  16  17
ATOM     17  O   UNL     1      12.684  -6.516  21.986  1.00  0.00    -0.318 OA
BRANCH  17  18
ATOM     18  P   UNL     1      13.027  -7.240  23.423  1.00  0.00     0.268 P 
ATOM     19  O   UNL     1      12.231  -6.501  24.571  1.00  0.00    -0.756 OA
ATOM     20  O   UNL     1      12.659  -8.657  23.366  1.00  0.00    -0.276 OA
BRANCH  18  21
ATOM     21  O   UNL     1      14.587  -7.075  23.684  1.00  0.00    -0.312 OA
BRANCH  21  22
ATOM     22  C   UNL     1      15.404  -8.052  23.000  1.00  0.00     0.231 C 
BRANCH  22  23
ATOM     23  C   UNL     1      16.404  -7.286  22.097  1.00  0.00     0.292 C 
BRANCH  23  24
ATOM     24  N   UNL     1      17.896  -7.439  22.356  1.00  0.00    -0.329 N 
ATOM     25  C   UNL     1      18.114  -8.791  23.001  1.00  0.00     0.334 C 
ATOM     26  C   UNL     1      18.402  -6.373  23.301  1.00  0.00     0.334 C 
ATOM     27  C   UNL     1      18.688  -7.392  21.069  1.00  0.00     0.334 C 
ENDBRANCH  23  24
ENDBRANCH  22  23
ENDBRANCH  21  22
ENDBRANCH  18  21
ENDBRANCH  17  18
ENDBRANCH  16  17
ENDBRANCH  15  16
ENDBRANCH  14  15
ENDBRANCH  13  14
ENDBRANCH   1  13
TORSDOF 20
ENDMDL
MODEL 16
REMARK VINA RESULT:    -5.549      5.282      8.764
REMARK INTER + INTRA:         -14.731
REMARK INTER:                 -12.188
REMARK INTRA:                  -2.543
REMARK UNBOUND:                -2.693
REMARK SMILES CCCCCCCCCCCCCCCCO[P@](=O)([O-])OCC[N+](C)(C)C
REMARK SMILES IDX 12 1 11 2 10 3 9 4 8 5 7 6 6 7 5 8 4 9 3 10 2 11 1 12 13 13
REMARK SMILES IDX 14 14 15 15 16 16 17 17 18 18 20 19 19 20 21 21 22 22 23 23
REMARK SMILES IDX 24 24 25 25 26 26 27 27
REMARK H PARENT
REMARK Flexibility Score: inf
ROOT
ATOM      1  C   UNL     1      12.607  -6.193  16.372  1.00  0.00     0.000 C 
ENDROOT
BRANCH   1   2
ATOM      2  C   UNL     1      13.930  -6.043  15.576  1.00  0.00     0.000 C 
BRANCH   2   3
ATOM      3  C   UNL     1      13.942  -6.994  14.348  1.00  0.00     0.000 C 
BRANCH   3   4
ATOM      4  C   UNL     1      13.892  -8.494  14.731  1.00  0.00     0.000 C 
BRANCH   4   5
ATOM      5  C   UNL     1      15.256  -9.212  14.546  1.00  0.00    -0.000 C 
BRANCH   5   6
ATOM      6  C   UNL     1      15.900  -9.581  15.909  1.00  0.00    -0.000 C 
BRANCH   6   7
ATOM      7  C   UNL     1      17.387  -9.157  16.021  1.00  0.00    -0.000 C 
BRANCH   7   8
ATOM      8  C   UNL     1      17.637  -7.744  15.429  1.00  0.00    -0.000 C 
BRANCH   8   9
ATOM      9  C   UNL     1      17.386  -6.617  16.463  1.00  0.00    -0.000 C 
BRANCH   9  10
ATOM     10  C   UNL     1      17.523  -5.203  15.841  1.00  0.00    -0.000 C 
BRANCH  10  11
ATOM     11  C   UNL     1      18.382  -4.255  16.715  1.00  0.00    -0.003 C 
ATOM     12  C   UNL     1      19.228  -3.282  15.866  1.00  0.00     0.004 C 
ENDBRANCH  10  11
ENDBRANCH   9  10
ENDBRANCH   8   9
ENDBRANCH   7   8
ENDBRANCH   6   7
ENDBRANCH   5   6
ENDBRANCH   4   5
ENDBRANCH   3   4
ENDBRANCH   2   3
ENDBRANCH   1   2
BRANCH   1  13
ATOM     13  C   UNL     1      12.786  -6.757  17.802  1.00  0.00     0.000 C 
BRANCH  13  14
ATOM     14  C   UNL     1      14.286  -6.770  18.190  1.00  0.00     0.002 C 
BRANCH  14  15
ATOM     15  C   UNL     1      14.720  -8.043  18.953  1.00  0.00     0.029 C 
BRANCH  15  16
ATOM     16  C   UNL     1      14.242  -7.986  20.422  1.00  0.00     0.170 C 
BRANCH  16  17
ATOM     17  O   UNL     1      15.377  -8.247  21.342  1.00  0.00    -0.318 OA
BRANCH  17  18
ATOM     18  P   UNL     1      16.600  -7.212  21.716  1.00  0.00     0.268 P 
ATOM     19  O   UNL     1      17.949  -7.779  21.119  1.00  0.00    -0.756 OA
ATOM     20  O   UNL     1      16.311  -5.883  21.173  1.00  0.00    -0.276 OA
BRANCH  18  21
ATOM     21  O   UNL     1      16.716  -7.159  23.301  1.00  0.00    -0.312 OA
BRANCH  21  22
ATOM     22  C   UNL     1      17.846  -7.886  23.832  1.00  0.00     0.231 C 
BRANCH  22  23
ATOM     23  C   UNL     1      17.349  -9.291  24.258  1.00  0.00     0.292 C 
BRANCH  23  24
ATOM     24  N   UNL     1      18.311 -10.468  24.179  1.00  0.00    -0.329 N 
ATOM     25  C   UNL     1      18.953 -10.628  25.541  1.00  0.00     0.334 C 
ATOM     26  C   UNL     1      19.402 -10.219  23.164  1.00  0.00     0.334 C 
ATOM     27  C   UNL     1      17.587 -11.751  23.840  1.00  0.00     0.334 C 
ENDBRANCH  23  24
ENDBRANCH  22  23
ENDBRANCH  21  22
ENDBRANCH  18  21
ENDBRANCH  17  18
ENDBRANCH  16  17
ENDBRANCH  15  16
ENDBRANCH  14  15
ENDBRANCH  13  14
ENDBRANCH   1  13
TORSDOF 20
ENDMDL
MODEL 17
REMARK VINA RESULT:    -5.549      1.619      2.659
REMARK INTER + INTRA:         -14.730
REMARK INTER:                 -12.203
REMARK INTRA:                  -2.527
REMARK UNBOUND:                -2.693
REMARK SMILES CCCCCCCCCCCCCCCCO[P@](=O)([O-])OCC[N+](C)(C)C
REMARK SMILES IDX 12 1 11 2 10 3 9 4 8 5 7 6 6 7 5 8 4 9 3 10 2 11 1 12 13 13
REMARK SMILES IDX 14 14 15 15 16 16 17 17 18 18 20 19 19 20 21 21 22 22 23 23
REMARK SMILES IDX 24 24 25 25 26 26 27 27
REMARK H PARENT
REMARK Flexibility Score: inf
ROOT
ATOM      1  C   UNL     1      15.655  -8.002  18.335  1.00  0.00     0.000 C 
ENDROOT
BRANCH   1   2
ATOM      2  C   UNL     1      15.255  -9.160  17.386  1.00  0.00     0.000 C 
BRANCH   2   3
ATOM      3  C   UNL     1      16.120  -9.136  16.095  1.00  0.00     0.000 C 
BRANCH   3   4
ATOM      4  C   UNL     1      15.495  -8.297  14.953  1.00  0.00     0.000 C 
BRANCH   4   5
ATOM      5  C   UNL     1      16.558  -7.678  14.005  1.00  0.00    -0.000 C 
BRANCH   5   6
ATOM      6  C   UNL     1      16.609  -6.132  14.132  1.00  0.00    -0.000 C 
BRANCH   6   7
ATOM      7  C   UNL     1      16.449  -5.629  15.590  1.00  0.00    -0.000 C 
BRANCH   7   8
ATOM      8  C   UNL     1      17.717  -4.888  16.093  1.00  0.00    -0.000 C 
BRANCH   8   9
ATOM      9  C   UNL     1      18.357  -5.583  17.323  1.00  0.00    -0.000 C 
BRANCH   9  10
ATOM     10  C   UNL     1      18.990  -6.953  16.964  1.00  0.00    -0.000 C 
BRANCH  10  11
ATOM     11  C   UNL     1      19.388  -7.766  18.222  1.00  0.00    -0.003 C 
ATOM     12  C   UNL     1      20.909  -7.742  18.478  1.00  0.00     0.004 C 
ENDBRANCH  10  11
ENDBRANCH   9  10
ENDBRANCH   8   9
ENDBRANCH   7   8
ENDBRANCH   6   7
ENDBRANCH   5   6
ENDBRANCH   4   5
ENDBRANCH   3   4
ENDBRANCH   2   3
ENDBRANCH   1   2
BRANCH   1  13
ATOM     13  C   UNL     1      14.458  -7.291  19.013  1.00  0.00     0.000 C 
BRANCH  13  14
ATOM     14  C   UNL     1      13.855  -6.230  18.057  1.00  0.00     0.002 C 
BRANCH  14  15
ATOM     15  C   UNL     1      12.691  -6.763  17.191  1.00  0.00     0.029 C 
BRANCH  15  16
ATOM     16  C   UNL     1      12.461  -5.849  15.966  1.00  0.00     0.170 C 
BRANCH  16  17
ATOM     17  O   UNL     1      11.725  -6.584  14.908  1.00  0.00    -0.318 OA
BRANCH  17  18
ATOM     18  P   UNL     1      10.478  -6.014  13.998  1.00  0.00     0.268 P 
ATOM     19  O   UNL     1       9.219  -6.945  14.217  1.00  0.00    -0.756 OA
ATOM     20  O   UNL     1      10.174  -4.633  14.380  1.00  0.00    -0.276 OA
BRANCH  18  21
ATOM     21  O   UNL     1      10.922  -6.091  12.473  1.00  0.00    -0.312 OA
BRANCH  21  22
ATOM     22  C   UNL     1       9.837  -6.361  11.558  1.00  0.00     0.231 C 
BRANCH  22  23
ATOM     23  C   UNL     1       9.464  -5.029  10.858  1.00  0.00     0.292 C 
BRANCH  23  24
ATOM     24  N   UNL     1       7.995  -4.690  10.654  1.00  0.00    -0.329 N 
ATOM     25  C   UNL     1       7.352  -4.588  12.021  1.00  0.00     0.334 C 
ATOM     26  C   UNL     1       7.284  -5.771   9.873  1.00  0.00     0.334 C 
ATOM     27  C   UNL     1       7.827  -3.363   9.949  1.00  0.00     0.334 C 
ENDBRANCH  23  24
ENDBRANCH  22  23
ENDBRANCH  21  22
ENDBRANCH  18  21
ENDBRANCH  17  18
ENDBRANCH  16  17
ENDBRANCH  15  16
ENDBRANCH  14  15
ENDBRANCH  13  14
ENDBRANCH   1  13
TORSDOF 20
ENDMDL
MODEL 18
REMARK VINA RESULT:    -5.547      5.264      8.370
REMARK INTER + INTRA:         -14.725
REMARK INTER:                 -11.972
REMARK INTRA:                  -2.753
REMARK UNBOUND:                -2.693
REMARK SMILES CCCCCCCCCCCCCCCCO[P@](=O)([O-])OCC[N+](C)(C)C
REMARK SMILES IDX 12 1 11 2 10 3 9 4 8 5 7 6 6 7 5 8 4 9 3 10 2 11 1 12 13 13
REMARK SMILES IDX 14 14 15 15 16 16 17 17 18 18 20 19 19 20 21 21 22 22 23 23
REMARK SMILES IDX 24 24 25 25 26 26 27 27
REMARK H PARENT
REMARK Flexibility Score: inf
ROOT
ATOM      1  C   UNL     1      14.196  -7.819  18.342  1.00  0.00     0.000 C 
ENDROOT
BRANCH   1   2
ATOM      2  C   UNL     1      14.513  -6.461  17.663  1.00  0.00     0.000 C 
BRANCH   2   3
ATOM      3  C   UNL     1      13.263  -5.913  16.920  1.00  0.00     0.000 C 
BRANCH   3   4
ATOM      4  C   UNL     1      12.566  -6.971  16.028  1.00  0.00     0.000 C 
BRANCH   4   5
ATOM      5  C   UNL     1      13.108  -6.989  14.574  1.00  0.00    -0.000 C 
BRANCH   5   6
ATOM      6  C   UNL     1      13.477  -8.426  14.117  1.00  0.00    -0.000 C 
BRANCH   6   7
ATOM      7  C   UNL     1      14.994  -8.730  14.209  1.00  0.00    -0.000 C 
BRANCH   7   8
ATOM      8  C   UNL     1      15.325  -9.699  15.375  1.00  0.00    -0.000 C 
BRANCH   8   9
ATOM      9  C   UNL     1      16.716  -9.418  16.000  1.00  0.00    -0.000 C 
BRANCH   9  10
ATOM     10  C   UNL     1      17.246  -8.004  15.647  1.00  0.00    -0.000 C 
BRANCH  10  11
ATOM     11  C   UNL     1      18.462  -7.595  16.518  1.00  0.00    -0.003 C 
ATOM     12  C   UNL     1      18.103  -7.500  18.016  1.00  0.00     0.004 C 
ENDBRANCH  10  11
ENDBRANCH   9  10
ENDBRANCH   8   9
ENDBRANCH   7   8
ENDBRANCH   6   7
ENDBRANCH   5   6
ENDBRANCH   4   5
ENDBRANCH   3   4
ENDBRANCH   2   3
ENDBRANCH   1   2
BRANCH   1  13
ATOM     13  C   UNL     1      14.516  -7.864  19.856  1.00  0.00     0.000 C 
BRANCH  13  14
ATOM     14  C   UNL     1      13.243  -7.545  20.682  1.00  0.00     0.002 C 
BRANCH  14  15
ATOM     15  C   UNL     1      13.065  -8.451  21.922  1.00  0.00     0.029 C 
BRANCH  15  16
ATOM     16  C   UNL     1      12.982  -7.601  23.210  1.00  0.00     0.170 C 
BRANCH  16  17
ATOM     17  O   UNL     1      14.278  -6.921  23.460  1.00  0.00    -0.318 OA
BRANCH  17  18
ATOM     18  P   UNL     1      14.552  -5.299  23.481  1.00  0.00     0.268 P 
ATOM     19  O   UNL     1      13.167  -4.549  23.620  1.00  0.00    -0.756 OA
ATOM     20  O   UNL     1      15.439  -4.959  24.596  1.00  0.00    -0.276 OA
BRANCH  18  21
ATOM     21  O   UNL     1      15.218  -4.907  22.092  1.00  0.00    -0.312 OA
BRANCH  21  22
ATOM     22  C   UNL     1      16.581  -4.440  22.205  1.00  0.00     0.231 C 
BRANCH  22  23
ATOM     23  C   UNL     1      17.485  -5.418  21.412  1.00  0.00     0.292 C 
BRANCH  23  24
ATOM     24  N   UNL     1      18.309  -6.444  22.176  1.00  0.00    -0.329 N 
ATOM     25  C   UNL     1      19.585  -6.681  21.397  1.00  0.00     0.334 C 
ATOM     26  C   UNL     1      17.574  -7.759  22.298  1.00  0.00     0.334 C 
ATOM     27  C   UNL     1      18.678  -5.941  23.553  1.00  0.00     0.334 C 
ENDBRANCH  23  24
ENDBRANCH  22  23
ENDBRANCH  21  22
ENDBRANCH  18  21
ENDBRANCH  17  18
ENDBRANCH  16  17
ENDBRANCH  15  16
ENDBRANCH  14  15
ENDBRANCH  13  14
ENDBRANCH   1  13
TORSDOF 20
ENDMDL
MODEL 19
REMARK VINA RESULT:    -5.502      4.930      8.206
REMARK INTER + INTRA:         -14.628
REMARK INTER:                 -11.525
REMARK INTRA:                  -3.103
REMARK UNBOUND:                -2.693
REMARK SMILES CCCCCCCCCCCCCCCCO[P@](=O)([O-])OCC[N+](C)(C)C
REMARK SMILES IDX 12 1 11 2 10 3 9 4 8 5 7 6 6 7 5 8 4 9 3 10 2 11 1 12 13 13
REMARK SMILES IDX 14 14 15 15 16 16 17 17 18 18 20 19 19 20 21 21 22 22 23 23
REMARK SMILES IDX 24 24 25 25 26 26 27 27
REMARK H PARENT
REMARK Flexibility Score: inf
ROOT
ATOM      1  C   UNL     1      16.743  -5.784  15.621  1.00  0.00     0.000 C 
ENDROOT
BRANCH   1   2
ATOM      2  C   UNL     1      16.630  -6.332  14.175  1.00  0.00     0.000 C 
BRANCH   2   3
ATOM      3  C   UNL     1      16.315  -7.853  14.187  1.00  0.00     0.000 C 
BRANCH   3   4
ATOM      4  C   UNL     1      16.708  -8.552  15.512  1.00  0.00     0.000 C 
BRANCH   4   5
ATOM      5  C   UNL     1      15.483  -9.082  16.304  1.00  0.00    -0.000 C 
BRANCH   5   6
ATOM      6  C   UNL     1      15.574  -8.721  17.811  1.00  0.00    -0.000 C 
BRANCH   6   7
ATOM      7  C   UNL     1      14.308  -8.007  18.350  1.00  0.00    -0.000 C 
BRANCH   7   8
ATOM      8  C   UNL     1      14.100  -6.616  17.695  1.00  0.00    -0.000 C 
BRANCH   8   9
ATOM      9  C   UNL     1      12.831  -6.566  16.805  1.00  0.00    -0.000 C 
BRANCH   9  10
ATOM     10  C   UNL     1      12.992  -5.604  15.599  1.00  0.00    -0.000 C 
BRANCH  10  11
ATOM     11  C   UNL     1      12.942  -6.348  14.240  1.00  0.00    -0.003 C 
ATOM     12  C   UNL     1      12.556  -7.833  14.400  1.00  0.00     0.004 C 
ENDBRANCH  10  11
ENDBRANCH   9  10
ENDBRANCH   8   9
ENDBRANCH   7   8
ENDBRANCH   6   7
ENDBRANCH   5   6
ENDBRANCH   4   5
ENDBRANCH   3   4
ENDBRANCH   2   3
ENDBRANCH   1   2
BRANCH   1  13
ATOM     13  C   UNL     1      17.775  -4.643  15.791  1.00  0.00     0.000 C 
BRANCH  13  14
ATOM     14  C   UNL     1      18.523  -4.794  17.140  1.00  0.00     0.002 C 
BRANCH  14  15
ATOM     15  C   UNL     1      17.860  -5.802  18.108  1.00  0.00     0.029 C 
BRANCH  15  16
ATOM     16  C   UNL     1      18.923  -6.465  19.013  1.00  0.00     0.170 C 
BRANCH  16  17
ATOM     17  O   UNL     1      18.743  -6.029  20.420  1.00  0.00    -0.318 OA
BRANCH  17  18
ATOM     18  P   UNL     1      18.013  -6.874  21.628  1.00  0.00     0.268 P 
ATOM     19  O   UNL     1      16.741  -7.607  21.042  1.00  0.00    -0.756 OA
ATOM     20  O   UNL     1      18.953  -7.843  22.196  1.00  0.00    -0.276 OA
BRANCH  18  21
ATOM     21  O   UNL     1      17.547  -5.829  22.731  1.00  0.00    -0.312 OA
BRANCH  21  22
ATOM     22  C   UNL     1      16.571  -4.873  22.260  1.00  0.00     0.231 C 
BRANCH  22  23
ATOM     23  C   UNL     1      15.474  -4.739  23.347  1.00  0.00     0.292 C 
BRANCH  23  24
ATOM     24  N   UNL     1      14.012  -4.801  22.930  1.00  0.00    -0.329 N 
ATOM     25  C   UNL     1      13.935  -5.593  21.642  1.00  0.00     0.334 C 
ATOM     26  C   UNL     1      13.454  -3.420  22.675  1.00  0.00     0.334 C 
ATOM     27  C   UNL     1      13.170  -5.503  23.971  1.00  0.00     0.334 C 
ENDBRANCH  23  24
ENDBRANCH  22  23
ENDBRANCH  21  22
ENDBRANCH  18  21
ENDBRANCH  17  18
ENDBRANCH  16  17
ENDBRANCH  15  16
ENDBRANCH  14  15
ENDBRANCH  13  14
ENDBRANCH   1  13
TORSDOF 20
ENDMDL
MODEL 20
REMARK VINA RESULT:    -5.500      4.968     11.304
REMARK INTER + INTRA:         -14.623
REMARK INTER:                 -13.242
REMARK INTRA:                  -1.381
REMARK UNBOUND:                -2.693
REMARK SMILES CCCCCCCCCCCCCCCCO[P@](=O)([O-])OCC[N+](C)(C)C
REMARK SMILES IDX 12 1 11 2 10 3 9 4 8 5 7 6 6 7 5 8 4 9 3 10 2 11 1 12 13 13
REMARK SMILES IDX 14 14 15 15 16 16 17 17 18 18 20 19 19 20 21 21 22 22 23 23
REMARK SMILES IDX 24 24 25 25 26 26 27 27
REMARK H PARENT
REMARK Flexibility Score: inf
ROOT
ATOM      1  C   UNL     1      13.721  -8.006  15.473  1.00  0.00     0.000 C 
ENDROOT
BRANCH   1   2
ATOM      2  C   UNL     1      12.342  -7.683  14.843  1.00  0.00     0.000 C 
BRANCH   2   3
ATOM      3  C   UNL     1      11.969  -8.738  13.765  1.00  0.00     0.000 C 
BRANCH   3   4
ATOM      4  C   UNL     1      10.713  -8.358  12.941  1.00  0.00     0.000 C 
BRANCH   4   5
ATOM      5  C   UNL     1       9.914  -7.182  13.563  1.00  0.00    -0.000 C 
BRANCH   5   6
ATOM      6  C   UNL     1       9.928  -5.929  12.646  1.00  0.00    -0.000 C 
BRANCH   6   7
ATOM      7  C   UNL     1       8.563  -5.198  12.584  1.00  0.00    -0.000 C 
BRANCH   7   8
ATOM      8  C   UNL     1       8.081  -4.986  11.123  1.00  0.00    -0.000 C 
BRANCH   8   9
ATOM      9  C   UNL     1       6.774  -5.761  10.815  1.00  0.00    -0.000 C 
BRANCH   9  10
ATOM     10  C   UNL     1       6.997  -6.918   9.807  1.00  0.00    -0.000 C 
BRANCH  10  11
ATOM     11  C   UNL     1       7.761  -8.110  10.437  1.00  0.00    -0.003 C 
ATOM     12  C   UNL     1       6.988  -8.745  11.612  1.00  0.00     0.004 C 
ENDBRANCH  10  11
ENDBRANCH   9  10
ENDBRANCH   8   9
ENDBRANCH   7   8
ENDBRANCH   6   7
ENDBRANCH   5   6
ENDBRANCH   4   5
ENDBRANCH   3   4
ENDBRANCH   2   3
ENDBRANCH   1   2
BRANCH   1  13
ATOM     13  C   UNL     1      14.522  -9.099  14.724  1.00  0.00     0.000 C 
BRANCH  13  14
ATOM     14  C   UNL     1      15.625  -9.681  15.646  1.00  0.00     0.002 C 
BRANCH  14  15
ATOM     15  C   UNL     1      15.658  -9.041  17.054  1.00  0.00     0.029 C 
BRANCH  15  16
ATOM     16  C   UNL     1      16.830  -8.040  17.168  1.00  0.00     0.170 C 
BRANCH  16  17
ATOM     17  O   UNL     1      17.842  -8.541  18.131  1.00  0.00    -0.318 OA
BRANCH  17  18
ATOM     18  P   UNL     1      18.753  -7.639  19.162  1.00  0.00     0.268 P 
ATOM     19  O   UNL     1      19.874  -6.894  18.334  1.00  0.00    -0.756 OA
ATOM     20  O   UNL     1      17.902  -6.677  19.866  1.00  0.00    -0.276 OA
BRANCH  18  21
ATOM     21  O   UNL     1      19.443  -8.637  20.190  1.00  0.00    -0.312 OA
BRANCH  21  22
ATOM     22  C   UNL     1      20.887  -8.571  20.193  1.00  0.00     0.231 C 
BRANCH  22  23
ATOM     23  C   UNL     1      21.396  -9.370  21.420  1.00  0.00     0.292 C 
BRANCH  23  24
ATOM     24  N   UNL     1      22.863  -9.266  21.810  1.00  0.00    -0.329 N 
ATOM     25  C   UNL     1      22.929  -8.654  23.193  1.00  0.00     0.334 C 
ATOM     26  C   UNL     1      23.623  -8.373  20.857  1.00  0.00     0.334 C 
ATOM     27  C   UNL     1      23.519 -10.627  21.860  1.00  0.00     0.334 C 
ENDBRANCH  23  24
ENDBRANCH  22  23
ENDBRANCH  21  22
ENDBRANCH  18  21
ENDBRANCH  17  18
ENDBRANCH  16  17
ENDBRANCH  15  16
ENDBRANCH  14  15
ENDBRANCH  13  14
ENDBRANCH   1  13
TORSDOF 20
ENDMDL
