MODEL 1
REMARK VINA RESULT:    -6.584      0.000      0.000
REMARK INTER + INTRA:          -7.912
REMARK INTER:                  -7.546
REMARK INTRA:                  -0.366
REMARK UNBOUND:                -0.366
REMARK SMILES NS(=O)(=O)Cc1noc2ccccc12
REMARK SMILES IDX 2 1 3 2 4 3 1 4 5 7 6 8 7 9 14 10 8 11 9 12 13 13 10 14
REMARK SMILES IDX 12 15 11 16
REMARK H PARENT 1 5 1 6
REMARK Flexibility Score: inf
ROOT
ATOM      1  S   UNL     1       9.846  -5.422  13.811  1.00  0.00     0.214 S 
ATOM      2  O   UNL     1      10.073  -4.174  14.792  1.00  0.00    -0.212 OA
ATOM      3  O   UNL     1       9.849  -6.784  14.656  1.00  0.00    -0.212 OA
ENDROOT
BRANCH   1   4
ATOM      4  N   UNL     1      11.180  -5.480  12.673  1.00  0.00    -0.228 NA
ATOM      5  H   UNL     1      11.766  -4.668  12.541  1.00  0.00     0.137 HD
ATOM      6  H   UNL     1      11.363  -6.325  12.151  1.00  0.00     0.137 HD
ENDBRANCH   1   4
BRANCH   1   7
ATOM      7  C   UNL     1       8.272  -5.244  12.889  1.00  0.00     0.214 C 
BRANCH   7   8
ATOM      8  C   UNL     1       8.451  -4.481  11.639  1.00  0.00     0.108 A 
ATOM      9  N   UNL     1       9.367  -3.504  11.479  1.00  0.00    -0.083 NA
ATOM     10  C   UNL     1       7.751  -4.578  10.440  1.00  0.00     0.046 A 
ATOM     11  O   UNL     1       9.287  -2.968  10.287  1.00  0.00    -0.356 OA
ATOM     12  C   UNL     1       8.293  -3.595   9.620  1.00  0.00     0.167 A 
ATOM     13  C   UNL     1       6.709  -5.409   9.986  1.00  0.00     0.014 A 
ATOM     14  C   UNL     1       7.804  -3.372   8.324  1.00  0.00     0.051 A 
ATOM     15  C   UNL     1       6.207  -5.200   8.681  1.00  0.00     0.001 A 
ATOM     16  C   UNL     1       6.742  -4.178   7.861  1.00  0.00     0.004 A 
ENDBRANCH   7   8
ENDBRANCH   1   7
TORSDOF 3
ENDMDL
MODEL 2
REMARK VINA RESULT:    -6.565      1.793      2.276
REMARK INTER + INTRA:          -7.890
REMARK INTER:                  -7.511
REMARK INTRA:                  -0.379
REMARK UNBOUND:                -0.366
REMARK SMILES NS(=O)(=O)Cc1noc2ccccc12
REMARK SMILES IDX 2 1 3 2 4 3 1 4 5 7 6 8 7 9 14 10 8 11 9 12 13 13 10 14
REMARK SMILES IDX 12 15 11 16
REMARK H PARENT 1 5 1 6
REMARK Flexibility Score: inf
ROOT
ATOM      1  S   UNL     1       9.464  -4.674  11.925  1.00  0.00     0.214 S 
ATOM      2  O   UNL     1       9.643  -4.896  13.503  1.00  0.00    -0.212 OA
ATOM      3  O   UNL     1      10.212  -5.844  11.125  1.00  0.00    -0.212 OA
ENDROOT
BRANCH   1   4
ATOM      4  N   UNL     1      10.215  -3.149  11.494  1.00  0.00    -0.228 NA
ATOM      5  H   UNL     1       9.925  -2.661  10.659  1.00  0.00     0.137 HD
ATOM      6  H   UNL     1      10.938  -2.757  12.081  1.00  0.00     0.137 HD
ENDBRANCH   1   4
BRANCH   1   7
ATOM      7  C   UNL     1       7.689  -4.622  11.473  1.00  0.00     0.214 C 
BRANCH   7   8
ATOM      8  C   UNL     1       7.493  -4.244  10.061  1.00  0.00     0.108 A 
ATOM      9  N   UNL     1       7.748  -3.015   9.569  1.00  0.00    -0.083 NA
ATOM     10  C   UNL     1       7.016  -5.012   9.002  1.00  0.00     0.046 A 
ATOM     11  O   UNL     1       7.453  -2.943   8.295  1.00  0.00    -0.356 OA
ATOM     12  C   UNL     1       6.986  -4.151   7.911  1.00  0.00     0.167 A 
ATOM     13  C   UNL     1       6.607  -6.354   8.880  1.00  0.00     0.014 A 
ATOM     14  C   UNL     1       6.519  -4.575   6.658  1.00  0.00     0.051 A 
ATOM     15  C   UNL     1       6.138  -6.798   7.622  1.00  0.00     0.001 A 
ATOM     16  C   UNL     1       6.082  -5.910   6.522  1.00  0.00     0.004 A 
ENDBRANCH   7   8
ENDBRANCH   1   7
TORSDOF 3
ENDMDL
MODEL 3
REMARK VINA RESULT:    -6.429      5.849      8.188
REMARK INTER + INTRA:          -7.735
REMARK INTER:                  -7.372
REMARK INTRA:                  -0.363
REMARK UNBOUND:                -0.366
REMARK SMILES NS(=O)(=O)Cc1noc2ccccc12
REMARK SMILES IDX 2 1 3 2 4 3 1 4 5 7 6 8 7 9 14 10 8 11 9 12 13 13 10 14
REMARK SMILES IDX 12 15 11 16
REMARK H PARENT 1 5 1 6
REMARK Flexibility Score: inf
ROOT
ATOM      1  S   UNL     1      10.498  -5.742  14.141  1.00  0.00     0.214 S 
ATOM      2  O   UNL     1       9.856  -5.296  12.741  1.00  0.00    -0.212 OA
ATOM      3  O   UNL     1       9.629  -6.927  14.782  1.00  0.00    -0.212 OA
ENDROOT
BRANCH   1   4
ATOM      4  N   UNL     1      10.446  -4.371  15.234  1.00  0.00    -0.228 NA
ATOM      5  H   UNL     1      10.658  -3.444  14.892  1.00  0.00     0.137 HD
ATOM      6  H   UNL     1      10.203  -4.508  16.205  1.00  0.00     0.137 HD
ENDBRANCH   1   4
BRANCH   1   7
ATOM      7  C   UNL     1      12.237  -6.272  13.918  1.00  0.00     0.214 C 
BRANCH   7   8
ATOM      8  C   UNL     1      12.837  -6.735  15.184  1.00  0.00     0.108 A 
ATOM      9  N   UNL     1      12.580  -6.179  16.386  1.00  0.00    -0.083 NA
ATOM     10  C   UNL     1      13.750  -7.763  15.402  1.00  0.00     0.046 A 
ATOM     11  O   UNL     1      13.271  -6.759  17.335  1.00  0.00    -0.356 OA
ATOM     12  C   UNL     1      14.014  -7.733  16.767  1.00  0.00     0.167 A 
ATOM     13  C   UNL     1      14.372  -8.706  14.562  1.00  0.00     0.014 A 
ATOM     14  C   UNL     1      14.932  -8.618  17.353  1.00  0.00     0.051 A 
ATOM     15  C   UNL     1      15.296  -9.607  15.138  1.00  0.00     0.001 A 
ATOM     16  C   UNL     1      15.584  -9.554  16.523  1.00  0.00     0.004 A 
ENDBRANCH   7   8
ENDBRANCH   1   7
TORSDOF 3
ENDMDL
MODEL 4
REMARK VINA RESULT:    -6.279      3.471      5.950
REMARK INTER + INTRA:          -7.563
REMARK INTER:                  -7.201
REMARK INTRA:                  -0.362
REMARK UNBOUND:                -0.366
REMARK SMILES NS(=O)(=O)Cc1noc2ccccc12
REMARK SMILES IDX 2 1 3 2 4 3 1 4 5 7 6 8 7 9 14 10 8 11 9 12 13 13 10 14
REMARK SMILES IDX 12 15 11 16
REMARK H PARENT 1 5 1 6
REMARK Flexibility Score: inf
ROOT
ATOM      1  S   UNL     1       9.188  -4.589  11.541  1.00  0.00     0.214 S 
ATOM      2  O   UNL     1      10.002  -5.750  10.791  1.00  0.00    -0.212 OA
ATOM      3  O   UNL     1       7.834  -4.274  10.743  1.00  0.00    -0.212 OA
ENDROOT
BRANCH   1   4
ATOM      4  N   UNL     1      10.173  -3.138  11.542  1.00  0.00    -0.228 NA
ATOM      5  H   UNL     1       9.755  -2.243  11.328  1.00  0.00     0.137 HD
ATOM      6  H   UNL     1      11.158  -3.195  11.758  1.00  0.00     0.137 HD
ENDBRANCH   1   4
BRANCH   1   7
ATOM      7  C   UNL     1       8.815  -5.069  13.269  1.00  0.00     0.214 C 
BRANCH   7   8
ATOM      8  C   UNL     1      10.019  -5.034  14.121  1.00  0.00     0.108 A 
ATOM      9  N   UNL     1      10.373  -3.978  14.882  1.00  0.00    -0.083 NA
ATOM     10  C   UNL     1      10.999  -6.007  14.300  1.00  0.00     0.046 A 
ATOM     11  O   UNL     1      11.501  -4.200  15.507  1.00  0.00    -0.356 OA
ATOM     12  C   UNL     1      11.926  -5.436  15.165  1.00  0.00     0.167 A 
ATOM     13  C   UNL     1      11.177  -7.312  13.803  1.00  0.00     0.014 A 
ATOM     14  C   UNL     1      13.087  -6.123  15.549  1.00  0.00     0.051 A 
ATOM     15  C   UNL     1      12.340  -8.019  14.184  1.00  0.00     0.001 A 
ATOM     16  C   UNL     1      13.295  -7.423  15.041  1.00  0.00     0.004 A 
ENDBRANCH   7   8
ENDBRANCH   1   7
TORSDOF 3
ENDMDL
MODEL 5
REMARK VINA RESULT:    -6.271      2.170      2.796
REMARK INTER + INTRA:          -7.553
REMARK INTER:                  -7.206
REMARK INTRA:                  -0.347
REMARK UNBOUND:                -0.366
REMARK SMILES NS(=O)(=O)Cc1noc2ccccc12
REMARK SMILES IDX 2 1 3 2 4 3 1 4 5 7 6 8 7 9 14 10 8 11 9 12 13 13 10 14
REMARK SMILES IDX 12 15 11 16
REMARK H PARENT 1 5 1 6
REMARK Flexibility Score: inf
ROOT
ATOM      1  S   UNL     1      10.790  -5.943  14.561  1.00  0.00     0.214 S 
ATOM      2  O   UNL     1       9.624  -7.001  14.860  1.00  0.00    -0.212 OA
ATOM      3  O   UNL     1      12.109  -6.344  15.378  1.00  0.00    -0.212 OA
ENDROOT
BRANCH   1   4
ATOM      4  N   UNL     1      10.260  -4.366  15.117  1.00  0.00    -0.228 NA
ATOM      5  H   UNL     1       9.666  -4.290  15.931  1.00  0.00     0.137 HD
ATOM      6  H   UNL     1      10.549  -3.532  14.624  1.00  0.00     0.137 HD
ENDBRANCH   1   4
BRANCH   1   7
ATOM      7  C   UNL     1      11.149  -5.861  12.766  1.00  0.00     0.214 C 
BRANCH   7   8
ATOM      8  C   UNL     1       9.937  -5.577  11.976  1.00  0.00     0.108 A 
ATOM      9  N   UNL     1       9.421  -4.343  11.806  1.00  0.00    -0.083 NA
ATOM     10  C   UNL     1       9.104  -6.460  11.293  1.00  0.00     0.046 A 
ATOM     11  O   UNL     1       8.324  -4.380  11.092  1.00  0.00    -0.356 OA
ATOM     12  C   UNL     1       8.088  -5.670  10.767  1.00  0.00     0.167 A 
ATOM     13  C   UNL     1       9.125  -7.852  11.083  1.00  0.00     0.014 A 
ATOM     14  C   UNL     1       7.031  -6.231  10.035  1.00  0.00     0.051 A 
ATOM     15  C   UNL     1       8.069  -8.432  10.344  1.00  0.00     0.001 A 
ATOM     16  C   UNL     1       7.021  -7.628   9.836  1.00  0.00     0.004 A 
ENDBRANCH   7   8
ENDBRANCH   1   7
TORSDOF 3
ENDMDL
MODEL 6
REMARK VINA RESULT:    -6.213      2.514      3.156
REMARK INTER + INTRA:          -7.487
REMARK INTER:                  -7.106
REMARK INTRA:                  -0.381
REMARK UNBOUND:                -0.366
REMARK SMILES NS(=O)(=O)Cc1noc2ccccc12
REMARK SMILES IDX 2 1 3 2 4 3 1 4 5 7 6 8 7 9 14 10 8 11 9 12 13 13 10 14
REMARK SMILES IDX 12 15 11 16
REMARK H PARENT 1 5 1 6
REMARK Flexibility Score: inf
ROOT
ATOM      1  S   UNL     1      11.176  -5.943  14.808  1.00  0.00     0.214 S 
ATOM      2  O   UNL     1      12.033  -6.611  15.987  1.00  0.00    -0.212 OA
ATOM      3  O   UNL     1      12.068  -5.843  13.479  1.00  0.00    -0.212 OA
ENDROOT
BRANCH   1   4
ATOM      4  N   UNL     1      10.739  -4.316  15.297  1.00  0.00    -0.228 NA
ATOM      5  H   UNL     1      11.457  -3.618  15.430  1.00  0.00     0.137 HD
ATOM      6  H   UNL     1       9.768  -4.076  15.445  1.00  0.00     0.137 HD
ENDBRANCH   1   4
BRANCH   1   7
ATOM      7  C   UNL     1       9.652  -6.907  14.484  1.00  0.00     0.214 C 
BRANCH   7   8
ATOM      8  C   UNL     1       8.872  -6.343  13.366  1.00  0.00     0.108 A 
ATOM      9  N   UNL     1       8.466  -5.059  13.305  1.00  0.00    -0.083 NA
ATOM     10  C   UNL     1       8.399  -6.972  12.218  1.00  0.00     0.046 A 
ATOM     11  O   UNL     1       7.762  -4.835  12.224  1.00  0.00    -0.356 OA
ATOM     12  C   UNL     1       7.687  -5.993  11.534  1.00  0.00     0.167 A 
ATOM     13  C   UNL     1       8.512  -8.279  11.707  1.00  0.00     0.014 A 
ATOM     14  C   UNL     1       7.028  -6.277  10.328  1.00  0.00     0.051 A 
ATOM     15  C   UNL     1       7.857  -8.580  10.491  1.00  0.00     0.001 A 
ATOM     16  C   UNL     1       7.109  -7.588   9.813  1.00  0.00     0.004 A 
ENDBRANCH   7   8
ENDBRANCH   1   7
TORSDOF 3
ENDMDL
MODEL 7
REMARK VINA RESULT:    -6.177     15.036     16.285
REMARK INTER + INTRA:          -7.446
REMARK INTER:                  -7.238
REMARK INTRA:                  -0.209
REMARK UNBOUND:                -0.366
REMARK SMILES NS(=O)(=O)Cc1noc2ccccc12
REMARK SMILES IDX 2 1 3 2 4 3 1 4 5 7 6 8 7 9 14 10 8 11 9 12 13 13 10 14
REMARK SMILES IDX 12 15 11 16
REMARK H PARENT 1 5 1 6
REMARK Flexibility Score: inf
ROOT
ATOM      1  S   UNL     1      22.678   0.018  21.858  1.00  0.00     0.214 S 
ATOM      2  O   UNL     1      23.472   1.020  22.827  1.00  0.00    -0.212 OA
ATOM      3  O   UNL     1      23.457  -1.380  21.770  1.00  0.00    -0.212 OA
ENDROOT
BRANCH   1   4
ATOM      4  N   UNL     1      22.634   0.723  20.253  1.00  0.00    -0.228 NA
ATOM      5  H   UNL     1      22.297   0.178  19.471  1.00  0.00     0.137 HD
ATOM      6  H   UNL     1      22.944   1.674  20.109  1.00  0.00     0.137 HD
ENDBRANCH   1   4
BRANCH   1   7
ATOM      7  C   UNL     1      20.965  -0.240  22.453  1.00  0.00     0.214 C 
BRANCH   7   8
ATOM      8  C   UNL     1      20.018   0.699  21.824  1.00  0.00     0.108 A 
ATOM      9  N   UNL     1      20.366   1.911  21.344  1.00  0.00    -0.083 NA
ATOM     10  C   UNL     1      18.647   0.562  21.617  1.00  0.00     0.046 A 
ATOM     11  O   UNL     1      19.326   2.552  20.873  1.00  0.00    -0.356 OA
ATOM     12  C   UNL     1      18.245   1.758  21.034  1.00  0.00     0.167 A 
ATOM     13  C   UNL     1      17.722  -0.467  21.877  1.00  0.00     0.014 A 
ATOM     14  C   UNL     1      16.900   1.998  20.712  1.00  0.00     0.051 A 
ATOM     15  C   UNL     1      16.365  -0.243  21.555  1.00  0.00     0.001 A 
ATOM     16  C   UNL     1      15.955   0.988  20.989  1.00  0.00     0.004 A 
ENDBRANCH   7   8
ENDBRANCH   1   7
TORSDOF 3
ENDMDL
MODEL 8
REMARK VINA RESULT:    -6.121      2.356      2.942
REMARK INTER + INTRA:          -7.381
REMARK INTER:                  -7.152
REMARK INTRA:                  -0.229
REMARK UNBOUND:                -0.366
REMARK SMILES NS(=O)(=O)Cc1noc2ccccc12
REMARK SMILES IDX 2 1 3 2 4 3 1 4 5 7 6 8 7 9 14 10 8 11 9 12 13 13 10 14
REMARK SMILES IDX 12 15 11 16
REMARK H PARENT 1 5 1 6
REMARK Flexibility Score: inf
ROOT
ATOM      1  S   UNL     1       9.510  -4.628  11.927  1.00  0.00     0.214 S 
ATOM      2  O   UNL     1      10.008  -4.622  13.451  1.00  0.00    -0.212 OA
ATOM      3  O   UNL     1      10.199  -5.841  11.137  1.00  0.00    -0.212 OA
ENDROOT
BRANCH   1   4
ATOM      4  N   UNL     1      10.017  -3.126  11.175  1.00  0.00    -0.228 NA
ATOM      5  H   UNL     1       9.427  -2.308  11.233  1.00  0.00     0.137 HD
ATOM      6  H   UNL     1      10.899  -3.079  10.684  1.00  0.00     0.137 HD
ENDBRANCH   1   4
BRANCH   1   7
ATOM      7  C   UNL     1       7.685  -4.762  11.839  1.00  0.00     0.214 C 
BRANCH   7   8
ATOM      8  C   UNL     1       7.254  -5.715  10.799  1.00  0.00     0.108 A 
ATOM      9  N   UNL     1       7.034  -7.026  11.024  1.00  0.00    -0.083 NA
ATOM     10  C   UNL     1       7.013  -5.492   9.446  1.00  0.00     0.046 A 
ATOM     11  O   UNL     1       6.695  -7.647   9.923  1.00  0.00    -0.356 OA
ATOM     12  C   UNL     1       6.684  -6.738   8.924  1.00  0.00     0.167 A 
ATOM     13  C   UNL     1       7.052  -4.347   8.626  1.00  0.00     0.014 A 
ATOM     14  C   UNL     1       6.408  -6.908   7.559  1.00  0.00     0.051 A 
ATOM     15  C   UNL     1       6.772  -4.502   7.250  1.00  0.00     0.001 A 
ATOM     16  C   UNL     1       6.466  -5.777   6.717  1.00  0.00     0.004 A 
ENDBRANCH   7   8
ENDBRANCH   1   7
TORSDOF 3
ENDMDL
MODEL 9
REMARK VINA RESULT:    -6.115     14.000     15.008
REMARK INTER + INTRA:          -7.375
REMARK INTER:                  -7.011
REMARK INTRA:                  -0.364
REMARK UNBOUND:                -0.366
REMARK SMILES NS(=O)(=O)Cc1noc2ccccc12
REMARK SMILES IDX 2 1 3 2 4 3 1 4 5 7 6 8 7 9 14 10 8 11 9 12 13 13 10 14
REMARK SMILES IDX 12 15 11 16
REMARK H PARENT 1 5 1 6
REMARK Flexibility Score: inf
ROOT
ATOM      1  S   UNL     1      18.880  -3.306  20.710  1.00  0.00     0.214 S 
ATOM      2  O   UNL     1      19.962  -3.833  21.770  1.00  0.00    -0.212 OA
ATOM      3  O   UNL     1      17.967  -4.527  20.214  1.00  0.00    -0.212 OA
ENDROOT
BRANCH   1   4
ATOM      4  N   UNL     1      19.737  -2.664  19.320  1.00  0.00    -0.228 NA
ATOM      5  H   UNL     1      19.423  -2.887  18.386  1.00  0.00     0.137 HD
ATOM      6  H   UNL     1      20.544  -2.071  19.453  1.00  0.00     0.137 HD
ENDBRANCH   1   4
BRANCH   1   7
ATOM      7  C   UNL     1      17.841  -1.987  21.442  1.00  0.00     0.214 C 
BRANCH   7   8
ATOM      8  C   UNL     1      18.505  -0.671  21.387  1.00  0.00     0.108 A 
ATOM      9  N   UNL     1      19.841  -0.498  21.450  1.00  0.00    -0.083 NA
ATOM     10  C   UNL     1      17.939   0.597  21.282  1.00  0.00     0.046 A 
ATOM     11  O   UNL     1      20.158   0.772  21.415  1.00  0.00    -0.356 OA
ATOM     12  C   UNL     1      19.011   1.480  21.324  1.00  0.00     0.167 A 
ATOM     13  C   UNL     1      16.616   1.065  21.161  1.00  0.00     0.014 A 
ATOM     14  C   UNL     1      18.817   2.869  21.279  1.00  0.00     0.051 A 
ATOM     15  C   UNL     1      16.404   2.462  21.110  1.00  0.00     0.001 A 
ATOM     16  C   UNL     1      17.497   3.358  21.183  1.00  0.00     0.004 A 
ENDBRANCH   7   8
ENDBRANCH   1   7
TORSDOF 3
ENDMDL
MODEL 10
REMARK VINA RESULT:    -6.046      1.852      2.265
REMARK INTER + INTRA:          -7.296
REMARK INTER:                  -6.896
REMARK INTRA:                  -0.401
REMARK UNBOUND:                -0.366
REMARK SMILES NS(=O)(=O)Cc1noc2ccccc12
REMARK SMILES IDX 2 1 3 2 4 3 1 4 5 7 6 8 7 9 14 10 8 11 9 12 13 13 10 14
REMARK SMILES IDX 12 15 11 16
REMARK H PARENT 1 5 1 6
REMARK Flexibility Score: inf
ROOT
ATOM      1  S   UNL     1       9.583  -6.305  13.134  1.00  0.00     0.214 S 
ATOM      2  O   UNL     1      11.009  -5.666  13.496  1.00  0.00    -0.212 OA
ATOM      3  O   UNL     1       9.082  -7.233  14.341  1.00  0.00    -0.212 OA
ENDROOT
BRANCH   1   4
ATOM      4  N   UNL     1       9.777  -7.314  11.712  1.00  0.00    -0.228 NA
ATOM      5  H   UNL     1       9.182  -7.172  10.907  1.00  0.00     0.137 HD
ATOM      6  H   UNL     1      10.483  -8.036  11.696  1.00  0.00     0.137 HD
ENDBRANCH   1   4
BRANCH   1   7
ATOM      7  C   UNL     1       8.353  -4.993  12.782  1.00  0.00     0.214 C 
BRANCH   7   8
ATOM      8  C   UNL     1       7.739  -5.159  11.451  1.00  0.00     0.108 A 
ATOM      9  N   UNL     1       7.013  -6.235  11.086  1.00  0.00    -0.083 NA
ATOM     10  C   UNL     1       7.786  -4.311  10.347  1.00  0.00     0.046 A 
ATOM     11  O   UNL     1       6.618  -6.142   9.841  1.00  0.00    -0.356 OA
ATOM     12  C   UNL     1       7.085  -4.975   9.347  1.00  0.00     0.167 A 
ATOM     13  C   UNL     1       8.364  -3.048  10.115  1.00  0.00     0.014 A 
ATOM     14  C   UNL     1       6.953  -4.428   8.062  1.00  0.00     0.051 A 
ATOM     15  C   UNL     1       8.235  -2.482   8.826  1.00  0.00     0.001 A 
ATOM     16  C   UNL     1       7.546  -3.174   7.803  1.00  0.00     0.004 A 
ENDBRANCH   7   8
ENDBRANCH   1   7
TORSDOF 3
ENDMDL
MODEL 11
REMARK VINA RESULT:    -6.043      5.938      8.253
REMARK INTER + INTRA:          -7.293
REMARK INTER:                  -7.000
REMARK INTRA:                  -0.292
REMARK UNBOUND:                -0.366
REMARK SMILES NS(=O)(=O)Cc1noc2ccccc12
REMARK SMILES IDX 2 1 3 2 4 3 1 4 5 7 6 8 7 9 14 10 8 11 9 12 13 13 10 14
REMARK SMILES IDX 12 15 11 16
REMARK H PARENT 1 5 1 6
REMARK Flexibility Score: inf
ROOT
ATOM      1  S   UNL     1      10.633  -5.551  14.454  1.00  0.00     0.214 S 
ATOM      2  O   UNL     1       9.617  -6.788  14.556  1.00  0.00    -0.212 OA
ATOM      3  O   UNL     1       9.874  -4.194  14.843  1.00  0.00    -0.212 OA
ENDROOT
BRANCH   1   4
ATOM      4  N   UNL     1      11.174  -5.419  12.790  1.00  0.00    -0.228 NA
ATOM      5  H   UNL     1      12.105  -5.718  12.537  1.00  0.00     0.137 HD
ATOM      6  H   UNL     1      10.556  -5.043  12.085  1.00  0.00     0.137 HD
ENDBRANCH   1   4
BRANCH   1   7
ATOM      7  C   UNL     1      12.083  -5.809  15.543  1.00  0.00     0.214 C 
BRANCH   7   8
ATOM      8  C   UNL     1      12.898  -6.960  15.110  1.00  0.00     0.108 A 
ATOM      9  N   UNL     1      12.854  -7.489  13.870  1.00  0.00    -0.083 NA
ATOM     10  C   UNL     1      13.814  -7.714  15.838  1.00  0.00     0.046 A 
ATOM     11  O   UNL     1      13.650  -8.523  13.767  1.00  0.00    -0.356 OA
ATOM     12  C   UNL     1      14.251  -8.702  14.963  1.00  0.00     0.167 A 
ATOM     13  C   UNL     1      14.302  -7.644  17.157  1.00  0.00     0.014 A 
ATOM     14  C   UNL     1      15.168  -9.683  15.368  1.00  0.00     0.051 A 
ATOM     15  C   UNL     1      15.230  -8.623  17.579  1.00  0.00     0.001 A 
ATOM     16  C   UNL     1      15.649  -9.644  16.694  1.00  0.00     0.004 A 
ENDBRANCH   7   8
ENDBRANCH   1   7
TORSDOF 3
ENDMDL
MODEL 12
REMARK VINA RESULT:    -6.016      2.082      2.774
REMARK INTER + INTRA:          -7.262
REMARK INTER:                  -6.879
REMARK INTRA:                  -0.383
REMARK UNBOUND:                -0.366
REMARK SMILES NS(=O)(=O)Cc1noc2ccccc12
REMARK SMILES IDX 2 1 3 2 4 3 1 4 5 7 6 8 7 9 14 10 8 11 9 12 13 13 10 14
REMARK SMILES IDX 12 15 11 16
REMARK H PARENT 1 5 1 6
REMARK Flexibility Score: inf
ROOT
ATOM      1  S   UNL     1      10.752  -5.627  14.557  1.00  0.00     0.214 S 
ATOM      2  O   UNL     1      12.173  -5.632  15.299  1.00  0.00    -0.212 OA
ATOM      3  O   UNL     1      10.001  -4.238  14.834  1.00  0.00    -0.212 OA
ENDROOT
BRANCH   1   4
ATOM      4  N   UNL     1       9.775  -6.921  15.227  1.00  0.00    -0.228 NA
ATOM      5  H   UNL     1      10.036  -7.884  15.070  1.00  0.00     0.137 HD
ATOM      6  H   UNL     1       8.951  -6.703  15.770  1.00  0.00     0.137 HD
ENDBRANCH   1   4
BRANCH   1   7
ATOM      7  C   UNL     1      10.957  -5.895  12.756  1.00  0.00     0.214 C 
BRANCH   7   8
ATOM      8  C   UNL     1       9.659  -5.995  12.064  1.00  0.00     0.108 A 
ATOM      9  N   UNL     1       8.829  -7.053  12.170  1.00  0.00    -0.083 NA
ATOM     10  C   UNL     1       9.053  -5.093  11.194  1.00  0.00     0.046 A 
ATOM     11  O   UNL     1       7.763  -6.897  11.425  1.00  0.00    -0.356 OA
ATOM     12  C   UNL     1       7.870  -5.706  10.797  1.00  0.00     0.167 A 
ATOM     13  C   UNL     1       9.408  -3.818  10.711  1.00  0.00     0.014 A 
ATOM     14  C   UNL     1       7.003  -5.096   9.879  1.00  0.00     0.051 A 
ATOM     15  C   UNL     1       8.542  -3.188   9.789  1.00  0.00     0.001 A 
ATOM     16  C   UNL     1       7.354  -3.830   9.365  1.00  0.00     0.004 A 
ENDBRANCH   7   8
ENDBRANCH   1   7
TORSDOF 3
ENDMDL
MODEL 13
REMARK VINA RESULT:    -6.011      5.805      7.724
REMARK INTER + INTRA:          -7.256
REMARK INTER:                  -6.896
REMARK INTRA:                  -0.360
REMARK UNBOUND:                -0.366
REMARK SMILES NS(=O)(=O)Cc1noc2ccccc12
REMARK SMILES IDX 2 1 3 2 4 3 1 4 5 7 6 8 7 9 14 10 8 11 9 12 13 13 10 14
REMARK SMILES IDX 12 15 11 16
REMARK H PARENT 1 5 1 6
REMARK Flexibility Score: inf
ROOT
ATOM      1  S   UNL     1      10.476  -5.418  14.314  1.00  0.00     0.214 S 
ATOM      2  O   UNL     1       9.630  -4.100  14.659  1.00  0.00    -0.212 OA
ATOM      3  O   UNL     1      10.615  -5.571  12.724  1.00  0.00    -0.212 OA
ENDROOT
BRANCH   1   4
ATOM      4  N   UNL     1       9.603  -6.811  14.924  1.00  0.00    -0.228 NA
ATOM      5  H   UNL     1       9.567  -7.662  14.382  1.00  0.00     0.137 HD
ATOM      6  H   UNL     1       9.135  -6.762  15.818  1.00  0.00     0.137 HD
ENDBRANCH   1   4
BRANCH   1   7
ATOM      7  C   UNL     1      12.131  -5.351  15.097  1.00  0.00     0.214 C 
BRANCH   7   8
ATOM      8  C   UNL     1      12.928  -6.557  14.801  1.00  0.00     0.108 A 
ATOM      9  N   UNL     1      12.413  -7.801  14.735  1.00  0.00    -0.083 NA
ATOM     10  C   UNL     1      14.294  -6.672  14.560  1.00  0.00     0.046 A 
ATOM     11  O   UNL     1      13.345  -8.689  14.492  1.00  0.00    -0.356 OA
ATOM     12  C   UNL     1      14.521  -8.033  14.390  1.00  0.00     0.167 A 
ATOM     13  C   UNL     1      15.350  -5.743  14.476  1.00  0.00     0.014 A 
ATOM     14  C   UNL     1      15.811  -8.536  14.161  1.00  0.00     0.051 A 
ATOM     15  C   UNL     1      16.654  -6.234  14.241  1.00  0.00     0.001 A 
ATOM     16  C   UNL     1      16.885  -7.622  14.099  1.00  0.00     0.004 A 
ENDBRANCH   7   8
ENDBRANCH   1   7
TORSDOF 3
ENDMDL
MODEL 14
REMARK VINA RESULT:    -5.956      3.082      3.987
REMARK INTER + INTRA:          -7.193
REMARK INTER:                  -6.860
REMARK INTRA:                  -0.332
REMARK UNBOUND:                -0.366
REMARK SMILES NS(=O)(=O)Cc1noc2ccccc12
REMARK SMILES IDX 2 1 3 2 4 3 1 4 5 7 6 8 7 9 14 10 8 11 9 12 13 13 10 14
REMARK SMILES IDX 12 15 11 16
REMARK H PARENT 1 5 1 6
REMARK Flexibility Score: inf
ROOT
ATOM      1  S   UNL     1      12.609  -7.385  14.702  1.00  0.00     0.214 S 
ATOM      2  O   UNL     1      12.117  -7.296  16.226  1.00  0.00    -0.212 OA
ATOM      3  O   UNL     1      14.044  -8.097  14.637  1.00  0.00    -0.212 OA
ENDROOT
BRANCH   1   4
ATOM      4  N   UNL     1      12.779  -5.753  14.081  1.00  0.00    -0.228 NA
ATOM      5  H   UNL     1      12.984  -5.604  13.103  1.00  0.00     0.137 HD
ATOM      6  H   UNL     1      12.671  -4.963  14.701  1.00  0.00     0.137 HD
ENDBRANCH   1   4
BRANCH   1   7
ATOM      7  C   UNL     1      11.395  -8.298  13.679  1.00  0.00     0.214 C 
BRANCH   7   8
ATOM      8  C   UNL     1      10.243  -7.454  13.309  1.00  0.00     0.108 A 
ATOM      9  N   UNL     1       9.867  -6.353  13.991  1.00  0.00    -0.083 NA
ATOM     10  C   UNL     1       9.342  -7.605  12.258  1.00  0.00     0.046 A 
ATOM     11  O   UNL     1       8.794  -5.814  13.468  1.00  0.00    -0.356 OA
ATOM     12  C   UNL     1       8.432  -6.564  12.405  1.00  0.00     0.167 A 
ATOM     13  C   UNL     1       9.221  -8.533  11.206  1.00  0.00     0.014 A 
ATOM     14  C   UNL     1       7.343  -6.416  11.533  1.00  0.00     0.051 A 
ATOM     15  C   UNL     1       8.131  -8.395  10.316  1.00  0.00     0.001 A 
ATOM     16  C   UNL     1       7.191  -7.352  10.487  1.00  0.00     0.004 A 
ENDBRANCH   7   8
ENDBRANCH   1   7
TORSDOF 3
ENDMDL
MODEL 15
REMARK VINA RESULT:    -5.910      2.340      3.003
REMARK INTER + INTRA:          -7.140
REMARK INTER:                  -6.769
REMARK INTRA:                  -0.371
REMARK UNBOUND:                -0.366
REMARK SMILES NS(=O)(=O)Cc1noc2ccccc12
REMARK SMILES IDX 2 1 3 2 4 3 1 4 5 7 6 8 7 9 14 10 8 11 9 12 13 13 10 14
REMARK SMILES IDX 12 15 11 16
REMARK H PARENT 1 5 1 6
REMARK Flexibility Score: inf
ROOT
ATOM      1  S   UNL     1      10.591  -5.371  14.243  1.00  0.00     0.214 S 
ATOM      2  O   UNL     1      12.101  -5.911  14.251  1.00  0.00    -0.212 OA
ATOM      3  O   UNL     1      10.466  -4.095  15.206  1.00  0.00    -0.212 OA
ENDROOT
BRANCH   1   4
ATOM      4  N   UNL     1       9.550  -6.635  14.873  1.00  0.00    -0.228 NA
ATOM      5  H   UNL     1       9.482  -6.784  15.870  1.00  0.00     0.137 HD
ATOM      6  H   UNL     1       9.019  -7.215  14.239  1.00  0.00     0.137 HD
ENDBRANCH   1   4
BRANCH   1   7
ATOM      7  C   UNL     1      10.062  -4.944  12.542  1.00  0.00     0.214 C 
BRANCH   7   8
ATOM      8  C   UNL     1       9.435  -6.090  11.858  1.00  0.00     0.108 A 
ATOM      9  N   UNL     1       9.805  -7.373  12.046  1.00  0.00    -0.083 NA
ATOM     10  C   UNL     1       8.409  -6.100  10.917  1.00  0.00     0.046 A 
ATOM     11  O   UNL     1       9.110  -8.184  11.288  1.00  0.00    -0.356 OA
ATOM     12  C   UNL     1       8.247  -7.436  10.568  1.00  0.00     0.167 A 
ATOM     13  C   UNL     1       7.612  -5.095  10.336  1.00  0.00     0.014 A 
ATOM     14  C   UNL     1       7.308  -7.831   9.603  1.00  0.00     0.051 A 
ATOM     15  C   UNL     1       6.659  -5.477   9.364  1.00  0.00     0.001 A 
ATOM     16  C   UNL     1       6.518  -6.835   8.990  1.00  0.00     0.004 A 
ENDBRANCH   7   8
ENDBRANCH   1   7
TORSDOF 3
ENDMDL
MODEL 16
REMARK VINA RESULT:    -5.852      2.126      3.036
REMARK INTER + INTRA:          -7.073
REMARK INTER:                  -6.997
REMARK INTRA:                  -0.076
REMARK UNBOUND:                -0.366
REMARK SMILES NS(=O)(=O)Cc1noc2ccccc12
REMARK SMILES IDX 2 1 3 2 4 3 1 4 5 7 6 8 7 9 14 10 8 11 9 12 13 13 10 14
REMARK SMILES IDX 12 15 11 16
REMARK H PARENT 1 5 1 6
REMARK Flexibility Score: inf
ROOT
ATOM      1  S   UNL     1      10.541  -5.502  13.980  1.00  0.00     0.214 S 
ATOM      2  O   UNL     1      10.317  -4.192  14.877  1.00  0.00    -0.212 OA
ATOM      3  O   UNL     1      11.877  -6.256  14.447  1.00  0.00    -0.212 OA
ENDROOT
BRANCH   1   4
ATOM      4  N   UNL     1      10.751  -4.999  12.312  1.00  0.00    -0.228 NA
ATOM      5  H   UNL     1      10.512  -5.630  11.561  1.00  0.00     0.137 HD
ATOM      6  H   UNL     1      11.110  -4.078  12.103  1.00  0.00     0.137 HD
ENDBRANCH   1   4
BRANCH   1   7
ATOM      7  C   UNL     1       9.099  -6.625  14.096  1.00  0.00     0.214 C 
BRANCH   7   8
ATOM      8  C   UNL     1       8.737  -7.192  12.783  1.00  0.00     0.108 A 
ATOM      9  N   UNL     1       9.141  -8.403  12.349  1.00  0.00    -0.083 NA
ATOM     10  C   UNL     1       7.969  -6.635  11.765  1.00  0.00     0.046 A 
ATOM     11  O   UNL     1       8.707  -8.643  11.138  1.00  0.00    -0.356 OA
ATOM     12  C   UNL     1       7.991  -7.571  10.737  1.00  0.00     0.167 A 
ATOM     13  C   UNL     1       7.265  -5.422  11.629  1.00  0.00     0.014 A 
ATOM     14  C   UNL     1       7.341  -7.331   9.517  1.00  0.00     0.051 A 
ATOM     15  C   UNL     1       6.602  -5.168  10.407  1.00  0.00     0.001 A 
ATOM     16  C   UNL     1       6.652  -6.111   9.352  1.00  0.00     0.004 A 
ENDBRANCH   7   8
ENDBRANCH   1   7
TORSDOF 3
ENDMDL
MODEL 17
REMARK VINA RESULT:    -5.827      2.766      3.754
REMARK INTER + INTRA:          -7.045
REMARK INTER:                  -6.761
REMARK INTRA:                  -0.284
REMARK UNBOUND:                -0.366
REMARK SMILES NS(=O)(=O)Cc1noc2ccccc12
REMARK SMILES IDX 2 1 3 2 4 3 1 4 5 7 6 8 7 9 14 10 8 11 9 12 13 13 10 14
REMARK SMILES IDX 12 15 11 16
REMARK H PARENT 1 5 1 6
REMARK Flexibility Score: inf
ROOT
ATOM      1  S   UNL     1      11.921  -7.600  14.805  1.00  0.00     0.214 S 
ATOM      2  O   UNL     1      11.906  -9.021  14.062  1.00  0.00    -0.212 OA
ATOM      3  O   UNL     1      13.342  -7.371  15.510  1.00  0.00    -0.212 OA
ENDROOT
BRANCH   1   4
ATOM      4  N   UNL     1      10.687  -7.616  16.051  1.00  0.00    -0.228 NA
ATOM      5  H   UNL     1      10.678  -6.900  16.764  1.00  0.00     0.137 HD
ATOM      6  H   UNL     1       9.983  -8.342  16.057  1.00  0.00     0.137 HD
ENDBRANCH   1   4
BRANCH   1   7
ATOM      7  C   UNL     1      11.568  -6.245  13.623  1.00  0.00     0.214 C 
BRANCH   7   8
ATOM      8  C   UNL     1      10.172  -6.281  13.147  1.00  0.00     0.108 A 
ATOM      9  N   UNL     1       9.260  -7.185  13.558  1.00  0.00    -0.083 NA
ATOM     10  C   UNL     1       9.536  -5.459  12.220  1.00  0.00     0.046 A 
ATOM     11  O   UNL     1       8.112  -7.011  12.952  1.00  0.00    -0.356 OA
ATOM     12  C   UNL     1       8.246  -5.964  12.110  1.00  0.00     0.167 A 
ATOM     13  C   UNL     1       9.946  -4.340  11.470  1.00  0.00     0.014 A 
ATOM     14  C   UNL     1       7.314  -5.401  11.225  1.00  0.00     0.051 A 
ATOM     15  C   UNL     1       9.017  -3.758  10.577  1.00  0.00     0.001 A 
ATOM     16  C   UNL     1       7.714  -4.294  10.446  1.00  0.00     0.004 A 
ENDBRANCH   7   8
ENDBRANCH   1   7
TORSDOF 3
ENDMDL
MODEL 18
REMARK VINA RESULT:    -5.819      5.368      7.346
REMARK INTER + INTRA:          -7.036
REMARK INTER:                  -6.743
REMARK INTRA:                  -0.293
REMARK UNBOUND:                -0.366
REMARK SMILES NS(=O)(=O)Cc1noc2ccccc12
REMARK SMILES IDX 2 1 3 2 4 3 1 4 5 7 6 8 7 9 14 10 8 11 9 12 13 13 10 14
REMARK SMILES IDX 12 15 11 16
REMARK H PARENT 1 5 1 6
REMARK Flexibility Score: inf
ROOT
ATOM      1  S   UNL     1      10.078  -5.568  13.924  1.00  0.00     0.214 S 
ATOM      2  O   UNL     1       8.604  -6.109  13.597  1.00  0.00    -0.212 OA
ATOM      3  O   UNL     1       9.983  -4.263  14.849  1.00  0.00    -0.212 OA
ENDROOT
BRANCH   1   4
ATOM      4  N   UNL     1      10.848  -5.115  12.415  1.00  0.00    -0.228 NA
ATOM      5  H   UNL     1      11.371  -5.801  11.889  1.00  0.00     0.137 HD
ATOM      6  H   UNL     1      10.768  -4.169  12.070  1.00  0.00     0.137 HD
ENDBRANCH   1   4
BRANCH   1   7
ATOM      7  C   UNL     1      11.078  -6.865  14.747  1.00  0.00     0.214 C 
BRANCH   7   8
ATOM      8  C   UNL     1      12.517  -6.540  14.732  1.00  0.00     0.108 A 
ATOM      9  N   UNL     1      13.006  -5.284  14.755  1.00  0.00    -0.083 NA
ATOM     10  C   UNL     1      13.612  -7.398  14.674  1.00  0.00     0.046 A 
ATOM     11  O   UNL     1      14.314  -5.282  14.697  1.00  0.00    -0.356 OA
ATOM     12  C   UNL     1      14.725  -6.566  14.634  1.00  0.00     0.167 A 
ATOM     13  C   UNL     1      13.750  -8.800  14.650  1.00  0.00     0.014 A 
ATOM     14  C   UNL     1      16.024  -7.088  14.535  1.00  0.00     0.051 A 
ATOM     15  C   UNL     1      15.053  -9.341  14.556  1.00  0.00     0.001 A 
ATOM     16  C   UNL     1      16.181  -8.489  14.484  1.00  0.00     0.004 A 
ENDBRANCH   7   8
ENDBRANCH   1   7
TORSDOF 3
ENDMDL
MODEL 19
REMARK VINA RESULT:    -5.818      8.378     10.014
REMARK INTER + INTRA:          -7.035
REMARK INTER:                  -6.717
REMARK INTRA:                  -0.318
REMARK UNBOUND:                -0.366
REMARK SMILES NS(=O)(=O)Cc1noc2ccccc12
REMARK SMILES IDX 2 1 3 2 4 3 1 4 5 7 6 8 7 9 14 10 8 11 9 12 13 13 10 14
REMARK SMILES IDX 12 15 11 16
REMARK H PARENT 1 5 1 6
REMARK Flexibility Score: inf
ROOT
ATOM      1  S   UNL     1      13.403  -7.452  21.380  1.00  0.00     0.214 S 
ATOM      2  O   UNL     1      12.101  -8.382  21.276  1.00  0.00    -0.212 OA
ATOM      3  O   UNL     1      14.031  -7.561  22.851  1.00  0.00    -0.212 OA
ENDROOT
BRANCH   1   4
ATOM      4  N   UNL     1      12.915  -5.788  21.115  1.00  0.00    -0.228 NA
ATOM      5  H   UNL     1      12.371  -5.544  20.300  1.00  0.00     0.137 HD
ATOM      6  H   UNL     1      13.178  -5.072  21.779  1.00  0.00     0.137 HD
ENDBRANCH   1   4
BRANCH   1   7
ATOM      7  C   UNL     1      14.643  -7.926  20.117  1.00  0.00     0.214 C 
BRANCH   7   8
ATOM      8  C   UNL     1      14.129  -7.743  18.747  1.00  0.00     0.108 A 
ATOM      9  N   UNL     1      13.087  -6.946  18.434  1.00  0.00    -0.083 NA
ATOM     10  C   UNL     1      14.563  -8.325  17.559  1.00  0.00     0.046 A 
ATOM     11  O   UNL     1      12.818  -6.996  17.153  1.00  0.00    -0.356 OA
ATOM     12  C   UNL     1      13.699  -7.845  16.581  1.00  0.00     0.167 A 
ATOM     13  C   UNL     1      15.605  -9.215  17.235  1.00  0.00     0.014 A 
ATOM     14  C   UNL     1      13.812  -8.252  15.243  1.00  0.00     0.051 A 
ATOM     15  C   UNL     1      15.735  -9.630  15.890  1.00  0.00     0.001 A 
ATOM     16  C   UNL     1      14.835  -9.163  14.903  1.00  0.00     0.004 A 
ENDBRANCH   7   8
ENDBRANCH   1   7
TORSDOF 3
ENDMDL
MODEL 20
REMARK VINA RESULT:    -5.779      3.743      6.033
REMARK INTER + INTRA:          -6.990
REMARK INTER:                  -6.744
REMARK INTRA:                  -0.246
REMARK UNBOUND:                -0.366
REMARK SMILES NS(=O)(=O)Cc1noc2ccccc12
REMARK SMILES IDX 2 1 3 2 4 3 1 4 5 7 6 8 7 9 14 10 8 11 9 12 13 13 10 14
REMARK SMILES IDX 12 15 11 16
REMARK H PARENT 1 5 1 6
REMARK Flexibility Score: inf
ROOT
ATOM      1  S   UNL     1       9.167  -6.235  11.534  1.00  0.00     0.214 S 
ATOM      2  O   UNL     1       7.885  -5.852  10.651  1.00  0.00    -0.212 OA
ATOM      3  O   UNL     1      10.400  -5.289  11.140  1.00  0.00    -0.212 OA
ENDROOT
BRANCH   1   4
ATOM      4  N   UNL     1       9.612  -7.893  11.171  1.00  0.00    -0.228 NA
ATOM      5  H   UNL     1       9.057  -8.655  11.533  1.00  0.00     0.137 HD
ATOM      6  H   UNL     1      10.422  -8.086  10.600  1.00  0.00     0.137 HD
ENDBRANCH   1   4
BRANCH   1   7
ATOM      7  C   UNL     1       8.793  -6.087  13.322  1.00  0.00     0.214 C 
BRANCH   7   8
ATOM      8  C   UNL     1       9.945  -5.567  14.083  1.00  0.00     0.108 A 
ATOM      9  N   UNL     1       9.990  -4.337  14.633  1.00  0.00    -0.083 NA
ATOM     10  C   UNL     1      11.163  -6.180  14.365  1.00  0.00     0.046 A 
ATOM     11  O   UNL     1      11.141  -4.120  15.219  1.00  0.00    -0.356 OA
ATOM     12  C   UNL     1      11.896  -5.229  15.065  1.00  0.00     0.167 A 
ATOM     13  C   UNL     1      11.701  -7.451  14.084  1.00  0.00     0.014 A 
ATOM     14  C   UNL     1      13.209  -5.485  15.490  1.00  0.00     0.051 A 
ATOM     15  C   UNL     1      13.021  -7.726  14.509  1.00  0.00     0.001 A 
ATOM     16  C   UNL     1      13.774  -6.744  15.195  1.00  0.00     0.004 A 
ENDBRANCH   7   8
ENDBRANCH   1   7
TORSDOF 3
ENDMDL
