MODEL 1
REMARK VINA RESULT:    -6.576      0.000      0.000
REMARK INTER + INTRA:          -7.182
REMARK INTER:                  -7.153
REMARK INTRA:                  -0.029
REMARK UNBOUND:                -0.029
REMARK SMILES O=[N+]([O-])c1ccc(O)c2ncccc12
REMARK SMILES IDX 7 1 9 2 10 3 11 4 12 5 13 6 14 7 4 8 5 9 6 10 8 11 2 13 3 14
REMARK SMILES IDX 1 15
REMARK H PARENT 8 12
REMARK Flexibility Score: inf
ROOT
ATOM      1  C   UNL     1       6.304  -4.662   7.070  1.00  0.00     0.142 A 
ATOM      2  C   UNL     1       7.029  -4.192   8.184  1.00  0.00     0.119 A 
ATOM      3  N   UNL     1       7.434  -2.894   8.208  1.00  0.00    -0.252 NA
ATOM      4  C   UNL     1       8.135  -2.359   9.235  1.00  0.00     0.112 A 
ATOM      5  C   UNL     1       8.465  -3.156  10.342  1.00  0.00     0.021 A 
ATOM      6  C   UNL     1       8.054  -4.501  10.362  1.00  0.00     0.019 A 
ATOM      7  C   UNL     1       7.335  -5.059   9.274  1.00  0.00     0.082 A 
ATOM      8  C   UNL     1       6.909  -6.419   9.229  1.00  0.00     0.279 A 
ATOM      9  C   UNL     1       6.172  -6.865   8.105  1.00  0.00     0.090 A 
ATOM     10  C   UNL     1       5.875  -6.000   7.039  1.00  0.00     0.055 A 
ENDROOT
BRANCH   1  11
ATOM     11  O   UNL     1       6.022  -3.833   6.029  1.00  0.00    -0.506 OA
ATOM     12  H   UNL     1       5.677  -4.347   5.296  1.00  0.00     0.293 HD
ENDBRANCH   1  11
BRANCH   8  13
ATOM     13  N   UNL     1       7.197  -7.301  10.187  1.00  0.00     0.063 N 
ATOM     14  O   UNL     1       8.103  -8.174  10.022  1.00  0.00    -0.258 OA
ATOM     15  O   UNL     1       6.604  -7.324  11.195  1.00  0.00    -0.258 OA
ENDBRANCH   8  13
TORSDOF 2
ENDMDL
MODEL 2
REMARK VINA RESULT:    -6.484      1.977      3.466
REMARK INTER + INTRA:          -7.081
REMARK INTER:                  -7.012
REMARK INTRA:                  -0.069
REMARK UNBOUND:                -0.029
REMARK SMILES O=[N+]([O-])c1ccc(O)c2ncccc12
REMARK SMILES IDX 7 1 9 2 10 3 11 4 12 5 13 6 14 7 4 8 5 9 6 10 8 11 2 13 3 14
REMARK SMILES IDX 1 15
REMARK H PARENT 8 12
REMARK Flexibility Score: inf
ROOT
ATOM      1  C   UNL     1       7.194  -3.232   8.052  1.00  0.00     0.142 A 
ATOM      2  C   UNL     1       7.014  -4.586   8.399  1.00  0.00     0.119 A 
ATOM      3  N   UNL     1       6.350  -5.406   7.541  1.00  0.00    -0.252 NA
ATOM      4  C   UNL     1       6.131  -6.718   7.793  1.00  0.00     0.112 A 
ATOM      5  C   UNL     1       6.607  -7.285   8.985  1.00  0.00     0.021 A 
ATOM      6  C   UNL     1       7.309  -6.475   9.894  1.00  0.00     0.019 A 
ATOM      7  C   UNL     1       7.520  -5.097   9.631  1.00  0.00     0.082 A 
ATOM      8  C   UNL     1       8.207  -4.223  10.523  1.00  0.00     0.279 A 
ATOM      9  C   UNL     1       8.386  -2.870  10.147  1.00  0.00     0.090 A 
ATOM     10  C   UNL     1       7.885  -2.380   8.930  1.00  0.00     0.055 A 
ENDROOT
BRANCH   1  11
ATOM     11  O   UNL     1       6.703  -2.748   6.880  1.00  0.00    -0.506 OA
ATOM     12  H   UNL     1       7.379  -2.228   6.441  1.00  0.00     0.293 HD
ENDBRANCH   1  11
BRANCH   8  13
ATOM     13  N   UNL     1       8.668  -4.615  11.711  1.00  0.00     0.063 N 
ATOM     14  O   UNL     1       7.890  -4.736  12.707  1.00  0.00    -0.258 OA
ATOM     15  O   UNL     1       9.804  -4.828  11.887  1.00  0.00    -0.258 OA
ENDBRANCH   8  13
TORSDOF 2
ENDMDL
MODEL 3
REMARK VINA RESULT:    -6.479      5.039      6.773
REMARK INTER + INTRA:          -7.076
REMARK INTER:                  -7.020
REMARK INTRA:                  -0.056
REMARK UNBOUND:                -0.029
REMARK SMILES O=[N+]([O-])c1ccc(O)c2ncccc12
REMARK SMILES IDX 7 1 9 2 10 3 11 4 12 5 13 6 14 7 4 8 5 9 6 10 8 11 2 13 3 14
REMARK SMILES IDX 1 15
REMARK H PARENT 8 12
REMARK Flexibility Score: inf
ROOT
ATOM      1  C   UNL     1      10.146  -5.216  14.434  1.00  0.00     0.142 A 
ATOM      2  C   UNL     1      10.928  -6.380  14.297  1.00  0.00     0.119 A 
ATOM      3  N   UNL     1      12.103  -6.470  14.976  1.00  0.00    -0.252 NA
ATOM      4  C   UNL     1      12.918  -7.548  14.902  1.00  0.00     0.112 A 
ATOM      5  C   UNL     1      12.554  -8.641  14.101  1.00  0.00     0.021 A 
ATOM      6  C   UNL     1      11.341  -8.594  13.391  1.00  0.00     0.019 A 
ATOM      7  C   UNL     1      10.501  -7.453  13.459  1.00  0.00     0.082 A 
ATOM      8  C   UNL     1       9.270  -7.340  12.749  1.00  0.00     0.279 A 
ATOM      9  C   UNL     1       8.495  -6.166  12.912  1.00  0.00     0.090 A 
ATOM     10  C   UNL     1       8.927  -5.118  13.741  1.00  0.00     0.055 A 
ENDROOT
BRANCH   1  11
ATOM     11  O   UNL     1      10.562  -4.193  15.226  1.00  0.00    -0.506 OA
ATOM     12  H   UNL     1      10.281  -3.358  14.844  1.00  0.00     0.293 HD
ENDBRANCH   1  11
BRANCH   8  13
ATOM     13  N   UNL     1       8.826  -8.279  11.913  1.00  0.00     0.063 N 
ATOM     14  O   UNL     1       9.321  -8.409  10.752  1.00  0.00    -0.258 OA
ATOM     15  O   UNL     1       7.946  -8.992  12.206  1.00  0.00    -0.258 OA
ENDBRANCH   8  13
TORSDOF 2
ENDMDL
MODEL 4
REMARK VINA RESULT:    -6.459      1.507      3.068
REMARK INTER + INTRA:          -7.055
REMARK INTER:                  -6.969
REMARK INTRA:                  -0.086
REMARK UNBOUND:                -0.029
REMARK SMILES O=[N+]([O-])c1ccc(O)c2ncccc12
REMARK SMILES IDX 7 1 9 2 10 3 11 4 12 5 13 6 14 7 4 8 5 9 6 10 8 11 2 13 3 14
REMARK SMILES IDX 1 15
REMARK H PARENT 8 12
REMARK Flexibility Score: inf
ROOT
ATOM      1  C   UNL     1       8.515  -3.129   9.676  1.00  0.00     0.142 A 
ATOM      2  C   UNL     1       7.631  -3.867   8.864  1.00  0.00     0.119 A 
ATOM      3  N   UNL     1       7.114  -3.284   7.750  1.00  0.00    -0.252 NA
ATOM      4  C   UNL     1       6.257  -3.917   6.915  1.00  0.00     0.112 A 
ATOM      5  C   UNL     1       5.875  -5.240   7.184  1.00  0.00     0.021 A 
ATOM      6  C   UNL     1       6.396  -5.885   8.320  1.00  0.00     0.019 A 
ATOM      7  C   UNL     1       7.279  -5.209   9.200  1.00  0.00     0.082 A 
ATOM      8  C   UNL     1       7.825  -5.803  10.375  1.00  0.00     0.279 A 
ATOM      9  C   UNL     1       8.721  -5.045  11.168  1.00  0.00     0.090 A 
ATOM     10  C   UNL     1       9.060  -3.726  10.826  1.00  0.00     0.055 A 
ENDROOT
BRANCH   1  11
ATOM     11  O   UNL     1       8.840  -1.848   9.357  1.00  0.00    -0.506 OA
ATOM     12  H   UNL     1       8.711  -1.285  10.123  1.00  0.00     0.293 HD
ENDBRANCH   1  11
BRANCH   8  13
ATOM     13  N   UNL     1       7.509  -7.034  10.779  1.00  0.00     0.063 N 
ATOM     14  O   UNL     1       8.147  -8.046  10.356  1.00  0.00    -0.258 OA
ATOM     15  O   UNL     1       6.614  -7.227  11.507  1.00  0.00    -0.258 OA
ENDBRANCH   8  13
TORSDOF 2
ENDMDL
MODEL 5
REMARK VINA RESULT:    -6.289      2.227      3.708
REMARK INTER + INTRA:          -6.869
REMARK INTER:                  -6.776
REMARK INTRA:                  -0.093
REMARK UNBOUND:                -0.029
REMARK SMILES O=[N+]([O-])c1ccc(O)c2ncccc12
REMARK SMILES IDX 7 1 9 2 10 3 11 4 12 5 13 6 14 7 4 8 5 9 6 10 8 11 2 13 3 14
REMARK SMILES IDX 1 15
REMARK H PARENT 8 12
REMARK Flexibility Score: inf
ROOT
ATOM      1  C   UNL     1       9.673  -4.256  11.365  1.00  0.00     0.142 A 
ATOM      2  C   UNL     1       8.665  -4.402  10.391  1.00  0.00     0.119 A 
ATOM      3  N   UNL     1       8.347  -3.339   9.606  1.00  0.00    -0.252 NA
ATOM      4  C   UNL     1       7.392  -3.389   8.647  1.00  0.00     0.112 A 
ATOM      5  C   UNL     1       6.688  -4.583   8.428  1.00  0.00     0.021 A 
ATOM      6  C   UNL     1       6.995  -5.710   9.212  1.00  0.00     0.019 A 
ATOM      7  C   UNL     1       7.984  -5.645  10.226  1.00  0.00     0.082 A 
ATOM      8  C   UNL     1       8.325  -6.748  11.063  1.00  0.00     0.279 A 
ATOM      9  C   UNL     1       9.350  -6.580  12.026  1.00  0.00     0.090 A 
ATOM     10  C   UNL     1      10.013  -5.352  12.177  1.00  0.00     0.055 A 
ENDROOT
BRANCH   1  11
ATOM     11  O   UNL     1      10.313  -3.067  11.525  1.00  0.00    -0.506 OA
ATOM     12  H   UNL     1      11.091  -3.045  10.964  1.00  0.00     0.293 HD
ENDBRANCH   1  11
BRANCH   8  13
ATOM     13  N   UNL     1       7.703  -7.925  11.000  1.00  0.00     0.063 N 
ATOM     14  O   UNL     1       6.612  -8.123  11.617  1.00  0.00    -0.258 OA
ATOM     15  O   UNL     1       8.155  -8.824  10.404  1.00  0.00    -0.258 OA
ENDBRANCH   8  13
TORSDOF 2
ENDMDL
MODEL 6
REMARK VINA RESULT:    -6.285      2.099      2.587
REMARK INTER + INTRA:          -6.865
REMARK INTER:                  -6.767
REMARK INTRA:                  -0.099
REMARK UNBOUND:                -0.029
REMARK SMILES O=[N+]([O-])c1ccc(O)c2ncccc12
REMARK SMILES IDX 7 1 9 2 10 3 11 4 12 5 13 6 14 7 4 8 5 9 6 10 8 11 2 13 3 14
REMARK SMILES IDX 1 15
REMARK H PARENT 8 12
REMARK Flexibility Score: inf
ROOT
ATOM      1  C   UNL     1       6.714  -6.300   8.837  1.00  0.00     0.142 A 
ATOM      2  C   UNL     1       7.208  -4.991   9.008  1.00  0.00     0.119 A 
ATOM      3  N   UNL     1       6.925  -4.051   8.068  1.00  0.00    -0.252 NA
ATOM      4  C   UNL     1       7.359  -2.771   8.150  1.00  0.00     0.112 A 
ATOM      5  C   UNL     1       8.133  -2.368   9.249  1.00  0.00     0.021 A 
ATOM      6  C   UNL     1       8.438  -3.308  10.250  1.00  0.00     0.019 A 
ATOM      7  C   UNL     1       7.995  -4.651  10.148  1.00  0.00     0.082 A 
ATOM      8  C   UNL     1       8.288  -5.651  11.121  1.00  0.00     0.279 A 
ATOM      9  C   UNL     1       7.770  -6.956  10.934  1.00  0.00     0.090 A 
ATOM     10  C   UNL     1       6.996  -7.277   9.807  1.00  0.00     0.055 A 
ENDROOT
BRANCH   1  11
ATOM     11  O   UNL     1       5.972  -6.622   7.744  1.00  0.00    -0.506 OA
ATOM     12  H   UNL     1       5.150  -6.127   7.759  1.00  0.00     0.293 HD
ENDBRANCH   1  11
BRANCH   8  13
ATOM     13  N   UNL     1       9.054  -5.422  12.188  1.00  0.00     0.063 N 
ATOM     14  O   UNL     1      10.314  -5.561  12.132  1.00  0.00    -0.258 OA
ATOM     15  O   UNL     1       8.591  -5.120  13.219  1.00  0.00    -0.258 OA
ENDBRANCH   8  13
TORSDOF 2
ENDMDL
MODEL 7
REMARK VINA RESULT:    -6.199      6.613      8.398
REMARK INTER + INTRA:          -6.772
REMARK INTER:                  -6.698
REMARK INTRA:                  -0.074
REMARK UNBOUND:                -0.029
REMARK SMILES O=[N+]([O-])c1ccc(O)c2ncccc12
REMARK SMILES IDX 7 1 9 2 10 3 11 4 12 5 13 6 14 7 4 8 5 9 6 10 8 11 2 13 3 14
REMARK SMILES IDX 1 15
REMARK H PARENT 8 12
REMARK Flexibility Score: inf
ROOT
ATOM      1  C   UNL     1      11.117  -5.157  14.948  1.00  0.00     0.142 A 
ATOM      2  C   UNL     1      10.990  -6.361  14.228  1.00  0.00     0.119 A 
ATOM      3  N   UNL     1       9.844  -6.600  13.538  1.00  0.00    -0.252 NA
ATOM      4  C   UNL     1       9.636  -7.730  12.820  1.00  0.00     0.112 A 
ATOM      5  C   UNL     1      10.637  -8.711  12.763  1.00  0.00     0.021 A 
ATOM      6  C   UNL     1      11.843  -8.497  13.453  1.00  0.00     0.019 A 
ATOM      7  C   UNL     1      12.047  -7.320  14.217  1.00  0.00     0.082 A 
ATOM      8  C   UNL     1      13.240  -7.056  14.952  1.00  0.00     0.279 A 
ATOM      9  C   UNL     1      13.349  -5.834  15.658  1.00  0.00     0.090 A 
ATOM     10  C   UNL     1      12.302  -4.898  15.659  1.00  0.00     0.055 A 
ENDROOT
BRANCH   1  11
ATOM     11  O   UNL     1      10.104  -4.250  14.963  1.00  0.00    -0.506 OA
ATOM     12  H   UNL     1      10.196  -3.656  14.215  1.00  0.00     0.293 HD
ENDBRANCH   1  11
BRANCH   8  13
ATOM     13  N   UNL     1      14.251  -7.923  15.028  1.00  0.00     0.063 N 
ATOM     14  O   UNL     1      15.122  -7.994  14.108  1.00  0.00    -0.258 OA
ATOM     15  O   UNL     1      14.351  -8.667  15.924  1.00  0.00    -0.258 OA
ENDBRANCH   8  13
TORSDOF 2
ENDMDL
MODEL 8
REMARK VINA RESULT:    -6.166      2.191      4.269
REMARK INTER + INTRA:          -6.736
REMARK INTER:                  -6.695
REMARK INTRA:                  -0.041
REMARK UNBOUND:                -0.029
REMARK SMILES O=[N+]([O-])c1ccc(O)c2ncccc12
REMARK SMILES IDX 7 1 9 2 10 3 11 4 12 5 13 6 14 7 4 8 5 9 6 10 8 11 2 13 3 14
REMARK SMILES IDX 1 15
REMARK H PARENT 8 12
REMARK Flexibility Score: inf
ROOT
ATOM      1  C   UNL     1       7.121  -6.677  10.359  1.00  0.00     0.142 A 
ATOM      2  C   UNL     1       8.050  -5.902  11.082  1.00  0.00     0.119 A 
ATOM      3  N   UNL     1       8.578  -6.404  12.229  1.00  0.00    -0.252 NA
ATOM      4  C   UNL     1       9.474  -5.728  12.987  1.00  0.00     0.112 A 
ATOM      5  C   UNL     1       9.899  -4.452  12.588  1.00  0.00     0.021 A 
ATOM      6  C   UNL     1       9.386  -3.901  11.400  1.00  0.00     0.019 A 
ATOM      7  C   UNL     1       8.434  -4.607  10.621  1.00  0.00     0.082 A 
ATOM      8  C   UNL     1       7.865  -4.093   9.420  1.00  0.00     0.279 A 
ATOM      9  C   UNL     1       6.944  -4.896   8.704  1.00  0.00     0.090 A 
ATOM     10  C   UNL     1       6.575  -6.170   9.168  1.00  0.00     0.055 A 
ENDROOT
BRANCH   1  11
ATOM     11  O   UNL     1       6.751  -7.907  10.806  1.00  0.00    -0.506 OA
ATOM     12  H   UNL     1       5.945  -7.831  11.321  1.00  0.00     0.293 HD
ENDBRANCH   1  11
BRANCH   8  13
ATOM     13  N   UNL     1       8.139  -2.875   8.951  1.00  0.00     0.063 N 
ATOM     14  O   UNL     1       7.653  -1.838   9.498  1.00  0.00    -0.258 OA
ATOM     15  O   UNL     1       8.807  -2.722   8.003  1.00  0.00    -0.258 OA
ENDBRANCH   8  13
TORSDOF 2
ENDMDL
MODEL 9
REMARK VINA RESULT:    -6.163     16.724     18.160
REMARK INTER + INTRA:          -6.733
REMARK INTER:                  -7.012
REMARK INTRA:                   0.280
REMARK UNBOUND:                -0.029
REMARK SMILES O=[N+]([O-])c1ccc(O)c2ncccc12
REMARK SMILES IDX 7 1 9 2 10 3 11 4 12 5 13 6 14 7 4 8 5 9 6 10 8 11 2 13 3 14
REMARK SMILES IDX 1 15
REMARK H PARENT 8 12
REMARK Flexibility Score: inf
ROOT
ATOM      1  C   UNL     1      18.926   3.074  21.016  1.00  0.00     0.142 A 
ATOM      2  C   UNL     1      19.396   1.765  21.240  1.00  0.00     0.119 A 
ATOM      3  N   UNL     1      20.736   1.545  21.303  1.00  0.00    -0.252 NA
ATOM      4  C   UNL     1      21.275   0.321  21.513  1.00  0.00     0.112 A 
ATOM      5  C   UNL     1      20.433  -0.789  21.684  1.00  0.00     0.021 A 
ATOM      6  C   UNL     1      19.040  -0.603  21.639  1.00  0.00     0.019 A 
ATOM      7  C   UNL     1      18.483   0.680  21.401  1.00  0.00     0.082 A 
ATOM      8  C   UNL     1      17.081   0.926  21.325  1.00  0.00     0.279 A 
ATOM      9  C   UNL     1      16.633   2.252  21.112  1.00  0.00     0.090 A 
ATOM     10  C   UNL     1      17.542   3.312  20.957  1.00  0.00     0.055 A 
ENDROOT
BRANCH   1  11
ATOM     11  O   UNL     1      19.800   4.104  20.855  1.00  0.00    -0.506 OA
ATOM     12  H   UNL     1      19.324   4.936  20.899  1.00  0.00     0.293 HD
ENDBRANCH   1  11
BRANCH   8  13
ATOM     13  N   UNL     1      16.169  -0.042  21.419  1.00  0.00     0.063 N 
ATOM     14  O   UNL     1      16.216  -0.897  22.356  1.00  0.00    -0.258 OA
ATOM     15  O   UNL     1      15.317  -0.158  20.626  1.00  0.00    -0.258 OA
ENDBRANCH   8  13
TORSDOF 2
ENDMDL
MODEL 10
REMARK VINA RESULT:    -6.160      2.312      4.458
REMARK INTER + INTRA:          -6.728
REMARK INTER:                  -6.857
REMARK INTRA:                   0.129
REMARK UNBOUND:                -0.029
REMARK SMILES O=[N+]([O-])c1ccc(O)c2ncccc12
REMARK SMILES IDX 7 1 9 2 10 3 11 4 12 5 13 6 14 7 4 8 5 9 6 10 8 11 2 13 3 14
REMARK SMILES IDX 1 15
REMARK H PARENT 8 12
REMARK Flexibility Score: inf
ROOT
ATOM      1  C   UNL     1       9.157  -3.460  10.752  1.00  0.00     0.142 A 
ATOM      2  C   UNL     1       8.428  -4.664  10.678  1.00  0.00     0.119 A 
ATOM      3  N   UNL     1       8.551  -5.573  11.682  1.00  0.00    -0.252 NA
ATOM      4  C   UNL     1       7.890  -6.755  11.693  1.00  0.00     0.112 A 
ATOM      5  C   UNL     1       7.027  -7.078  10.636  1.00  0.00     0.021 A 
ATOM      6  C   UNL     1       6.862  -6.160   9.583  1.00  0.00     0.019 A 
ATOM      7  C   UNL     1       7.571  -4.932   9.570  1.00  0.00     0.082 A 
ATOM      8  C   UNL     1       7.459  -3.972   8.522  1.00  0.00     0.279 A 
ATOM      9  C   UNL     1       8.192  -2.764   8.624  1.00  0.00     0.090 A 
ATOM     10  C   UNL     1       9.031  -2.512   9.722  1.00  0.00     0.055 A 
ENDROOT
BRANCH   1  11
ATOM     11  O   UNL     1       9.979  -3.213  11.806  1.00  0.00    -0.506 OA
ATOM     12  H   UNL     1      10.527  -2.450  11.612  1.00  0.00     0.293 HD
ENDBRANCH   1  11
BRANCH   8  13
ATOM     13  N   UNL     1       6.716  -4.170   7.433  1.00  0.00     0.063 N 
ATOM     14  O   UNL     1       6.920  -5.166   6.674  1.00  0.00    -0.258 OA
ATOM     15  O   UNL     1       5.876  -3.418   7.122  1.00  0.00    -0.258 OA
ENDBRANCH   8  13
TORSDOF 2
ENDMDL
MODEL 11
REMARK VINA RESULT:    -6.081      3.192      4.726
REMARK INTER + INTRA:          -6.643
REMARK INTER:                  -6.603
REMARK INTRA:                  -0.040
REMARK UNBOUND:                -0.029
REMARK SMILES O=[N+]([O-])c1ccc(O)c2ncccc12
REMARK SMILES IDX 7 1 9 2 10 3 11 4 12 5 13 6 14 7 4 8 5 9 6 10 8 11 2 13 3 14
REMARK SMILES IDX 1 15
REMARK H PARENT 8 12
REMARK Flexibility Score: inf
ROOT
ATOM      1  C   UNL     1       8.006  -4.744  10.009  1.00  0.00     0.142 A 
ATOM      2  C   UNL     1       7.915  -5.954  10.725  1.00  0.00     0.119 A 
ATOM      3  N   UNL     1       7.102  -6.938  10.259  1.00  0.00    -0.252 NA
ATOM      4  C   UNL     1       6.953  -8.131  10.882  1.00  0.00     0.112 A 
ATOM      5  C   UNL     1       7.666  -8.392  12.062  1.00  0.00     0.021 A 
ATOM      6  C   UNL     1       8.527  -7.405  12.573  1.00  0.00     0.019 A 
ATOM      7  C   UNL     1       8.665  -6.151  11.923  1.00  0.00     0.082 A 
ATOM      8  C   UNL     1       9.507  -5.106  12.403  1.00  0.00     0.279 A 
ATOM      9  C   UNL     1       9.591  -3.904  11.660  1.00  0.00     0.090 A 
ATOM     10  C   UNL     1       8.849  -3.723  10.480  1.00  0.00     0.055 A 
ENDROOT
BRANCH   1  11
ATOM     11  O   UNL     1       7.283  -4.557   8.873  1.00  0.00    -0.506 OA
ATOM     12  H   UNL     1       7.009  -5.409   8.525  1.00  0.00     0.293 HD
ENDBRANCH   1  11
BRANCH   8  13
ATOM     13  N   UNL     1      10.202  -5.198  13.537  1.00  0.00     0.063 N 
ATOM     14  O   UNL     1       9.804  -4.623  14.596  1.00  0.00    -0.258 OA
ATOM     15  O   UNL     1      11.215  -5.780  13.588  1.00  0.00    -0.258 OA
ENDBRANCH   8  13
TORSDOF 2
ENDMDL
MODEL 12
REMARK VINA RESULT:    -6.027      1.819      3.401
REMARK INTER + INTRA:          -6.584
REMARK INTER:                  -6.515
REMARK INTRA:                  -0.070
REMARK UNBOUND:                -0.029
REMARK SMILES O=[N+]([O-])c1ccc(O)c2ncccc12
REMARK SMILES IDX 7 1 9 2 10 3 11 4 12 5 13 6 14 7 4 8 5 9 6 10 8 11 2 13 3 14
REMARK SMILES IDX 1 15
REMARK H PARENT 8 12
REMARK Flexibility Score: inf
ROOT
ATOM      1  C   UNL     1       8.500  -3.240  10.024  1.00  0.00     0.142 A 
ATOM      2  C   UNL     1       7.742  -4.288   9.464  1.00  0.00     0.119 A 
ATOM      3  N   UNL     1       6.944  -4.028   8.395  1.00  0.00    -0.252 NA
ATOM      4  C   UNL     1       6.181  -4.973   7.795  1.00  0.00     0.112 A 
ATOM      5  C   UNL     1       6.203  -6.291   8.275  1.00  0.00     0.021 A 
ATOM      6  C   UNL     1       7.025  -6.605   9.372  1.00  0.00     0.019 A 
ATOM      7  C   UNL     1       7.807  -5.606  10.006  1.00  0.00     0.082 A 
ATOM      8  C   UNL     1       8.644  -5.861  11.132  1.00  0.00     0.279 A 
ATOM      9  C   UNL     1       9.405  -4.794  11.670  1.00  0.00     0.090 A 
ATOM     10  C   UNL     1       9.333  -3.501  11.125  1.00  0.00     0.055 A 
ENDROOT
BRANCH   1  11
ATOM     11  O   UNL     1       8.428  -1.984   9.510  1.00  0.00    -0.506 OA
ATOM     12  H   UNL     1       8.602  -1.344  10.203  1.00  0.00     0.293 HD
ENDBRANCH   1  11
BRANCH   8  13
ATOM     13  N   UNL     1       8.722  -7.054  11.722  1.00  0.00     0.063 N 
ATOM     14  O   UNL     1       9.464  -7.970  11.251  1.00  0.00    -0.258 OA
ATOM     15  O   UNL     1       8.088  -7.309  12.671  1.00  0.00    -0.258 OA
ENDBRANCH   8  13
TORSDOF 2
ENDMDL
MODEL 13
REMARK VINA RESULT:    -6.018      2.676      5.089
REMARK INTER + INTRA:          -6.574
REMARK INTER:                  -6.707
REMARK INTRA:                   0.133
REMARK UNBOUND:                -0.029
REMARK SMILES O=[N+]([O-])c1ccc(O)c2ncccc12
REMARK SMILES IDX 7 1 9 2 10 3 11 4 12 5 13 6 14 7 4 8 5 9 6 10 8 11 2 13 3 14
REMARK SMILES IDX 1 15
REMARK H PARENT 8 12
REMARK Flexibility Score: inf
ROOT
ATOM      1  C   UNL     1       9.948  -5.143  11.989  1.00  0.00     0.142 A 
ATOM      2  C   UNL     1       9.221  -6.286  11.599  1.00  0.00     0.119 A 
ATOM      3  N   UNL     1       9.502  -7.479  12.187  1.00  0.00    -0.252 NA
ATOM      4  C   UNL     1       8.856  -8.627  11.873  1.00  0.00     0.112 A 
ATOM      5  C   UNL     1       7.841  -8.611  10.905  1.00  0.00     0.021 A 
ATOM      6  C   UNL     1       7.511  -7.394  10.281  1.00  0.00     0.019 A 
ATOM      7  C   UNL     1       8.204  -6.200  10.603  1.00  0.00     0.082 A 
ATOM      8  C   UNL     1       7.927  -4.942   9.991  1.00  0.00     0.279 A 
ATOM      9  C   UNL     1       8.661  -3.805  10.408  1.00  0.00     0.090 A 
ATOM     10  C   UNL     1       9.659  -3.904  11.392  1.00  0.00     0.055 A 
ENDROOT
BRANCH   1  11
ATOM     11  O   UNL     1      10.922  -5.232  12.933  1.00  0.00    -0.506 OA
ATOM     12  H   UNL     1      11.753  -4.922  12.566  1.00  0.00     0.293 HD
ENDBRANCH   1  11
BRANCH   8  13
ATOM     13  N   UNL     1       7.025  -4.790   9.021  1.00  0.00     0.063 N 
ATOM     14  O   UNL     1       7.360  -4.359   7.876  1.00  0.00    -0.258 OA
ATOM     15  O   UNL     1       5.891  -5.017   9.200  1.00  0.00    -0.258 OA
ENDBRANCH   8  13
TORSDOF 2
ENDMDL
MODEL 14
REMARK VINA RESULT:    -6.008      1.265      3.733
REMARK INTER + INTRA:          -6.564
REMARK INTER:                  -6.479
REMARK INTRA:                  -0.085
REMARK UNBOUND:                -0.029
REMARK SMILES O=[N+]([O-])c1ccc(O)c2ncccc12
REMARK SMILES IDX 7 1 9 2 10 3 11 4 12 5 13 6 14 7 4 8 5 9 6 10 8 11 2 13 3 14
REMARK SMILES IDX 1 15
REMARK H PARENT 8 12
REMARK Flexibility Score: inf
ROOT
ATOM      1  C   UNL     1       7.019  -6.703   9.988  1.00  0.00     0.142 A 
ATOM      2  C   UNL     1       7.705  -5.495  10.225  1.00  0.00     0.119 A 
ATOM      3  N   UNL     1       8.371  -5.334  11.399  1.00  0.00    -0.252 NA
ATOM      4  C   UNL     1       9.055  -4.207  11.711  1.00  0.00     0.112 A 
ATOM      5  C   UNL     1       9.100  -3.146  10.795  1.00  0.00     0.021 A 
ATOM      6  C   UNL     1       8.434  -3.277   9.563  1.00  0.00     0.019 A 
ATOM      7  C   UNL     1       7.705  -4.453   9.251  1.00  0.00     0.082 A 
ATOM      8  C   UNL     1       6.996  -4.636   8.028  1.00  0.00     0.279 A 
ATOM      9  C   UNL     1       6.325  -5.864   7.807  1.00  0.00     0.090 A 
ATOM     10  C   UNL     1       6.334  -6.882   8.774  1.00  0.00     0.055 A 
ENDROOT
BRANCH   1  11
ATOM     11  O   UNL     1       7.015  -7.691  10.923  1.00  0.00    -0.506 OA
ATOM     12  H   UNL     1       6.315  -8.317  10.723  1.00  0.00     0.293 HD
ENDBRANCH   1  11
BRANCH   8  13
ATOM     13  N   UNL     1       6.912  -3.692   7.090  1.00  0.00     0.063 N 
ATOM     14  O   UNL     1       7.769  -3.617   6.157  1.00  0.00    -0.258 OA
ATOM     15  O   UNL     1       6.068  -2.882   7.112  1.00  0.00    -0.258 OA
ENDBRANCH   8  13
TORSDOF 2
ENDMDL
MODEL 15
REMARK VINA RESULT:    -6.007      4.446      5.721
REMARK INTER + INTRA:          -6.563
REMARK INTER:                  -6.476
REMARK INTRA:                  -0.087
REMARK UNBOUND:                -0.029
REMARK SMILES O=[N+]([O-])c1ccc(O)c2ncccc12
REMARK SMILES IDX 7 1 9 2 10 3 11 4 12 5 13 6 14 7 4 8 5 9 6 10 8 11 2 13 3 14
REMARK SMILES IDX 1 15
REMARK H PARENT 8 12
REMARK Flexibility Score: inf
ROOT
ATOM      1  C   UNL     1       9.570  -8.204  11.373  1.00  0.00     0.142 A 
ATOM      2  C   UNL     1       9.568  -6.809  11.574  1.00  0.00     0.119 A 
ATOM      3  N   UNL     1       8.794  -6.028  10.776  1.00  0.00    -0.252 NA
ATOM      4  C   UNL     1       8.732  -4.681  10.897  1.00  0.00     0.112 A 
ATOM      5  C   UNL     1       9.487  -4.037  11.889  1.00  0.00     0.021 A 
ATOM      6  C   UNL     1      10.292  -4.809  12.744  1.00  0.00     0.019 A 
ATOM      7  C   UNL     1      10.365  -6.218  12.600  1.00  0.00     0.082 A 
ATOM      8  C   UNL     1      11.178  -7.052  13.424  1.00  0.00     0.279 A 
ATOM      9  C   UNL     1      11.153  -8.451  13.211  1.00  0.00     0.090 A 
ATOM     10  C   UNL     1      10.362  -9.020  12.199  1.00  0.00     0.055 A 
ENDROOT
BRANCH   1  11
ATOM     11  O   UNL     1       8.816  -8.762  10.389  1.00  0.00    -0.506 OA
ATOM     12  H   UNL     1       9.233  -9.571  10.086  1.00  0.00     0.293 HD
ENDBRANCH   1  11
BRANCH   8  13
ATOM     13  N   UNL     1      11.983  -6.570  14.371  1.00  0.00     0.063 N 
ATOM     14  O   UNL     1      13.133  -6.118  14.084  1.00  0.00    -0.258 OA
ATOM     15  O   UNL     1      11.673  -6.579  15.499  1.00  0.00    -0.258 OA
ENDBRANCH   8  13
TORSDOF 2
ENDMDL
MODEL 16
REMARK VINA RESULT:    -5.998      3.046      3.953
REMARK INTER + INTRA:          -6.553
REMARK INTER:                  -6.479
REMARK INTRA:                  -0.074
REMARK UNBOUND:                -0.029
REMARK SMILES O=[N+]([O-])c1ccc(O)c2ncccc12
REMARK SMILES IDX 7 1 9 2 10 3 11 4 12 5 13 6 14 7 4 8 5 9 6 10 8 11 2 13 3 14
REMARK SMILES IDX 1 15
REMARK H PARENT 8 12
REMARK Flexibility Score: inf
ROOT
ATOM      1  C   UNL     1       7.478  -7.194  10.292  1.00  0.00     0.142 A 
ATOM      2  C   UNL     1       8.194  -6.051  10.699  1.00  0.00     0.119 A 
ATOM      3  N   UNL     1       7.996  -4.879  10.039  1.00  0.00    -0.252 NA
ATOM      4  C   UNL     1       8.641  -3.733  10.361  1.00  0.00     0.112 A 
ATOM      5  C   UNL     1       9.556  -3.725  11.425  1.00  0.00     0.021 A 
ATOM      6  C   UNL     1       9.781  -4.914  12.141  1.00  0.00     0.019 A 
ATOM      7  C   UNL     1       9.115  -6.115  11.787  1.00  0.00     0.082 A 
ATOM      8  C   UNL     1       9.316  -7.354  12.463  1.00  0.00     0.279 A 
ATOM      9  C   UNL     1       8.575  -8.486  12.044  1.00  0.00     0.090 A 
ATOM     10  C   UNL     1       7.670  -8.409  10.972  1.00  0.00     0.055 A 
ENDROOT
BRANCH   1  11
ATOM     11  O   UNL     1       6.607  -7.130   9.249  1.00  0.00    -0.506 OA
ATOM     12  H   UNL     1       6.656  -6.262   8.845  1.00  0.00     0.293 HD
ENDBRANCH   1  11
BRANCH   8  13
ATOM     13  N   UNL     1      10.192  -7.504  13.457  1.00  0.00     0.063 N 
ATOM     14  O   UNL     1       9.893  -7.180  14.647  1.00  0.00    -0.258 OA
ATOM     15  O   UNL     1      11.273  -7.905  13.263  1.00  0.00    -0.258 OA
ENDBRANCH   8  13
TORSDOF 2
ENDMDL
MODEL 17
REMARK VINA RESULT:    -5.974      5.104      6.849
REMARK INTER + INTRA:          -6.526
REMARK INTER:                  -6.430
REMARK INTRA:                  -0.096
REMARK UNBOUND:                -0.029
REMARK SMILES O=[N+]([O-])c1ccc(O)c2ncccc12
REMARK SMILES IDX 7 1 9 2 10 3 11 4 12 5 13 6 14 7 4 8 5 9 6 10 8 11 2 13 3 14
REMARK SMILES IDX 1 15
REMARK H PARENT 8 12
REMARK Flexibility Score: inf
ROOT
ATOM      1  C   UNL     1      12.132  -7.881  14.408  1.00  0.00     0.142 A 
ATOM      2  C   UNL     1      11.237  -6.817  14.175  1.00  0.00     0.119 A 
ATOM      3  N   UNL     1      11.425  -5.640  14.829  1.00  0.00    -0.252 NA
ATOM      4  C   UNL     1      10.615  -4.568  14.668  1.00  0.00     0.112 A 
ATOM      5  C   UNL     1       9.528  -4.645  13.784  1.00  0.00     0.021 A 
ATOM      6  C   UNL     1       9.305  -5.841  13.078  1.00  0.00     0.019 A 
ATOM      7  C   UNL     1      10.147  -6.966  13.266  1.00  0.00     0.082 A 
ATOM      8  C   UNL     1       9.960  -8.209  12.594  1.00  0.00     0.279 A 
ATOM      9  C   UNL     1      10.880  -9.259  12.835  1.00  0.00     0.090 A 
ATOM     10  C   UNL     1      11.950  -9.098  13.731  1.00  0.00     0.055 A 
ENDROOT
BRANCH   1  11
ATOM     11  O   UNL     1      13.164  -7.737  15.282  1.00  0.00    -0.506 OA
ATOM     12  H   UNL     1      13.943  -7.435  14.810  1.00  0.00     0.293 HD
ENDBRANCH   1  11
BRANCH   8  13
ATOM     13  N   UNL     1       8.941  -8.439  11.766  1.00  0.00     0.063 N 
ATOM     14  O   UNL     1       7.815  -8.827  12.206  1.00  0.00    -0.258 OA
ATOM     15  O   UNL     1       9.056  -8.326  10.608  1.00  0.00    -0.258 OA
ENDBRANCH   8  13
TORSDOF 2
ENDMDL
MODEL 18
REMARK VINA RESULT:    -5.904     19.504     21.142
REMARK INTER + INTRA:          -6.451
REMARK INTER:                  -6.396
REMARK INTRA:                  -0.055
REMARK UNBOUND:                -0.029
REMARK SMILES O=[N+]([O-])c1ccc(O)c2ncccc12
REMARK SMILES IDX 7 1 9 2 10 3 11 4 12 5 13 6 14 7 4 8 5 9 6 10 8 11 2 13 3 14
REMARK SMILES IDX 1 15
REMARK H PARENT 8 12
REMARK Flexibility Score: inf
ROOT
ATOM      1  C   UNL     1      22.476  -7.540  23.008  1.00  0.00     0.142 A 
ATOM      2  C   UNL     1      22.231  -8.194  21.785  1.00  0.00     0.119 A 
ATOM      3  N   UNL     1      21.234  -7.740  20.981  1.00  0.00    -0.252 NA
ATOM      4  C   UNL     1      20.928  -8.307  19.790  1.00  0.00     0.112 A 
ATOM      5  C   UNL     1      21.665  -9.413  19.338  1.00  0.00     0.021 A 
ATOM      6  C   UNL     1      22.713  -9.907  20.134  1.00  0.00     0.019 A 
ATOM      7  C   UNL     1      23.016  -9.318  21.388  1.00  0.00     0.082 A 
ATOM      8  C   UNL     1      24.053  -9.787  22.247  1.00  0.00     0.279 A 
ATOM      9  C   UNL     1      24.288  -9.105  23.466  1.00  0.00     0.090 A 
ATOM     10  C   UNL     1      23.510  -7.998  23.843  1.00  0.00     0.055 A 
ENDROOT
BRANCH   1  11
ATOM     11  O   UNL     1      21.720  -6.474  23.386  1.00  0.00    -0.506 OA
ATOM     12  H   UNL     1      22.293  -5.733  23.594  1.00  0.00     0.293 HD
ENDBRANCH   1  11
BRANCH   8  13
ATOM     13  N   UNL     1      24.797 -10.857  21.967  1.00  0.00     0.063 N 
ATOM     14  O   UNL     1      25.761 -10.788  21.145  1.00  0.00    -0.258 OA
ATOM     15  O   UNL     1      24.568 -11.901  22.442  1.00  0.00    -0.258 OA
ENDBRANCH   8  13
TORSDOF 2
ENDMDL
MODEL 19
REMARK VINA RESULT:    -5.890      3.593      5.376
REMARK INTER + INTRA:          -6.435
REMARK INTER:                  -6.349
REMARK INTRA:                  -0.086
REMARK UNBOUND:                -0.029
REMARK SMILES O=[N+]([O-])c1ccc(O)c2ncccc12
REMARK SMILES IDX 7 1 9 2 10 3 11 4 12 5 13 6 14 7 4 8 5 9 6 10 8 11 2 13 3 14
REMARK SMILES IDX 1 15
REMARK H PARENT 8 12
REMARK Flexibility Score: inf
ROOT
ATOM      1  C   UNL     1       9.969  -8.370  12.150  1.00  0.00     0.142 A 
ATOM      2  C   UNL     1       9.997  -7.099  12.758  1.00  0.00     0.119 A 
ATOM      3  N   UNL     1      10.842  -6.885  13.802  1.00  0.00    -0.252 NA
ATOM      4  C   UNL     1      10.933  -5.698  14.446  1.00  0.00     0.112 A 
ATOM      5  C   UNL     1      10.136  -4.619  14.033  1.00  0.00     0.021 A 
ATOM      6  C   UNL     1       9.258  -4.795  12.949  1.00  0.00     0.019 A 
ATOM      7  C   UNL     1       9.155  -6.047  12.290  1.00  0.00     0.082 A 
ATOM      8  C   UNL     1       8.270  -6.291  11.199  1.00  0.00     0.279 A 
ATOM      9  C   UNL     1       8.269  -7.572  10.596  1.00  0.00     0.090 A 
ATOM     10  C   UNL     1       9.105  -8.599  11.066  1.00  0.00     0.055 A 
ENDROOT
BRANCH   1  11
ATOM     11  O   UNL     1      10.768  -9.372  12.605  1.00  0.00    -0.506 OA
ATOM     12  H   UNL     1      11.124  -9.132  13.464  1.00  0.00     0.293 HD
ENDBRANCH   1  11
BRANCH   8  13
ATOM     13  N   UNL     1       7.420  -5.374  10.736  1.00  0.00     0.063 N 
ATOM     14  O   UNL     1       7.772  -4.552   9.836  1.00  0.00    -0.258 OA
ATOM     15  O   UNL     1       6.337  -5.272  11.165  1.00  0.00    -0.258 OA
ENDBRANCH   8  13
TORSDOF 2
ENDMDL
