MODEL 1
REMARK VINA RESULT:    15.890      0.000      0.000
REMARK INTER + INTRA:          23.615
REMARK INTER:                  24.251
REMARK INTRA:                  -0.635
REMARK UNBOUND:                -0.635
REMARK SMILES C[C@@H]1[C@H](O)[C@@H](C)/C=C/C=C/C=C/C=C/C=C/C=C/C=C/[C@H](O[C@@H]2O[C@H](C)[C@@H](O)[C@H](N)[C@@H]2O)C[C@@H]2O[C@](O)(C[C@@H](O)C[C@@H](O)[C@H](O)CC[C@@H](O)C[C@@H](O)CC(=O)O[C@H]1C)C[C@H](O)[C@H]2C(=O)O
REMARK SMILES IDX 21 1 33 2 34 3 35 4 36 5 59 6 60 7 62 8 38 9 39 10 41 11
REMARK SMILES IDX 42 12 44 13 46 14 47 15 48 16 50 17 51 18 53 19 54 20 55 21
REMARK SMILES IDX 56 22 57 23 58 24 2 25 1 26 3 27 5 28 6 29 7 30 8 31 9 32
REMARK SMILES IDX 10 33 11 34 12 35 13 36 14 37 15 38 16 39 17 40 18 41 19 42
REMARK SMILES IDX 20 43 22 44 23 45 26 46 25 47 24 48 27 49 29 50 31 51 28 52
REMARK SMILES IDX 30 54 32 57 63 59 64 60 65 61 37 63 61 65 40 67 43 69 45 71
REMARK SMILES IDX 49 73 52 75 4 77
REMARK H PARENT 28 53 30 55 30 56 32 58 65 62 37 64 61 66 40 68 43 70 45 72
REMARK H PARENT 49 74 52 76 4 78
REMARK Flexibility Score: inf
ROOT
ATOM      1  C   UNL     1      19.131  -6.288  21.212  1.00  0.00     0.147 C 
ATOM      2  C   UNL     1      18.293  -5.118  21.835  1.00  0.00     0.069 C 
ATOM      3  C   UNL     1      18.987  -3.797  22.293  1.00  0.00     0.141 C 
ATOM      4  O   UNL     1      18.023  -2.893  22.896  1.00  0.00    -0.346 OA
ATOM      5  C   UNL     1      17.210  -2.008  22.073  1.00  0.00     0.170 C 
ATOM      6  C   UNL     1      18.053  -1.301  20.961  1.00  0.00     0.098 C 
ATOM      7  C   UNL     1      19.039  -2.250  20.233  1.00  0.00     0.136 C 
ATOM      8  C   UNL     1      19.902  -3.053  21.254  1.00  0.00     0.157 C 
ATOM      9  C   UNL     1      15.879  -2.633  21.521  1.00  0.00     0.097 C 
ATOM     10  C   UNL     1      15.017  -3.470  22.521  1.00  0.00     0.122 C 
ATOM     11  C   UNL     1      13.874  -4.282  21.825  1.00  0.00     0.066 C 
ATOM     12  C   UNL     1      14.309  -5.649  21.206  1.00  0.00     0.145 C 
ATOM     13  C   UNL     1      13.267  -6.306  20.239  1.00  0.00     0.143 C 
ATOM     14  C   UNL     1      12.900  -5.521  18.937  1.00  0.00     0.037 C 
ATOM     15  C   UNL     1      14.096  -5.180  18.004  1.00  0.00     0.034 C 
ATOM     16  C   UNL     1      13.775  -4.246  16.797  1.00  0.00     0.117 C 
ATOM     17  C   UNL     1      12.989  -4.899  15.610  1.00  0.00     0.064 C 
ATOM     18  C   UNL     1      12.389  -3.888  14.572  1.00  0.00     0.128 C 
ATOM     19  C   UNL     1      11.943  -4.509  13.212  1.00  0.00     0.154 C 
ATOM     20  C   UNL     1      10.750  -5.374  13.285  1.00  0.00     0.308 C 
ATOM     21  O   UNL     1      10.845  -6.506  13.814  1.00  0.00    -0.252 OA
ATOM     22  O   UNL     1       9.560  -4.928  12.767  1.00  0.00    -0.462 OA
ATOM     23  C   UNL     1       8.281  -5.598  12.763  1.00  0.00     0.178 C 
ATOM     24  C   UNL     1       7.380  -4.823  13.765  1.00  0.00     0.053 C 
ATOM     25  C   UNL     1       7.747  -5.728  11.285  1.00  0.00     0.056 C 
ATOM     26  C   UNL     1       7.103  -4.406  10.766  1.00  0.00     0.014 C 
ATOM     27  C   UNL     1       6.795  -6.961  11.019  1.00  0.00     0.127 C 
ATOM     28  C   UNL     1       7.472  -8.339  10.663  1.00  0.00     0.038 C 
ATOM     29  C   UNL     1       8.091  -8.321   9.228  1.00  0.00     0.015 C 
ATOM     30  C   UNL     1       8.328  -8.847  11.747  1.00  0.00    -0.021 C 
ATOM     31  C   UNL     1       9.610  -9.260  11.663  1.00  0.00    -0.004 C 
ATOM     32  C   UNL     1      10.363  -9.584  12.758  1.00  0.00    -0.000 C 
ATOM     33  C   UNL     1      11.584 -10.154  12.702  1.00  0.00    -0.000 C 
ATOM     34  C   UNL     1      12.394 -10.288  13.799  1.00  0.00    -0.000 C 
ATOM     35  C   UNL     1      13.683 -10.682  13.743  1.00  0.00    -0.000 C 
ATOM     36  C   UNL     1      14.533 -10.588  14.810  1.00  0.00    -0.000 C 
ATOM     37  C   UNL     1      15.876 -10.598  14.678  1.00  0.00    -0.000 C 
ATOM     38  C   UNL     1      16.806 -10.277  15.628  1.00  0.00    -0.000 C 
ATOM     39  C   UNL     1      16.582  -9.577  16.761  1.00  0.00    -0.000 C 
ATOM     40  C   UNL     1      17.580  -9.067  17.542  1.00  0.00    -0.000 C 
ATOM     41  C   UNL     1      17.345  -8.265  18.597  1.00  0.00    -0.000 C 
ATOM     42  C   UNL     1      18.319  -7.584  19.257  1.00  0.00    -0.002 C 
ATOM     43  C   UNL     1      18.209  -7.209  20.544  1.00  0.00     0.005 C 
ENDROOT
BRANCH   1  44
ATOM     44  O   UNL     1      19.863  -7.103  22.158  1.00  0.00    -0.342 OA
BRANCH  44  45
ATOM     45  C   UNL     1      21.246  -7.420  21.888  1.00  0.00     0.281 C 
ATOM     46  C   UNL     1      22.671  -9.941  19.504  1.00  0.00     0.041 C 
ATOM     47  C   UNL     1      22.735  -8.836  20.584  1.00  0.00     0.148 C 
ATOM     48  O   UNL     1      21.377  -8.517  20.955  1.00  0.00    -0.344 OA
ATOM     49  C   UNL     1      23.549  -9.261  21.845  1.00  0.00     0.162 C 
ATOM     50  C   UNL     1      23.432  -8.181  22.961  1.00  0.00     0.116 C 
ATOM     51  C   UNL     1      21.946  -7.798  23.223  1.00  0.00     0.190 C 
BRANCH  49  52
ATOM     52  O   UNL     1      24.920  -9.477  21.513  1.00  0.00    -0.389 OA
ATOM     53  H   UNL     1      25.046 -10.393  21.251  1.00  0.00     0.211 HD
ENDBRANCH  49  52
BRANCH  50  54
ATOM     54  N   UNL     1      24.073  -8.645  24.200  1.00  0.00    -0.323 NA
ATOM     55  H   UNL     1      23.704  -9.449  24.689  1.00  0.00     0.119 HD
ATOM     56  H   UNL     1      24.882  -8.161  24.563  1.00  0.00     0.119 HD
ENDBRANCH  50  54
BRANCH  51  57
ATOM     57  O   UNL     1      21.260  -8.889  23.841  1.00  0.00    -0.386 OA
ATOM     58  H   UNL     1      20.421  -9.032  23.397  1.00  0.00     0.211 HD
ENDBRANCH  51  57
ENDBRANCH  44  45
ENDBRANCH   1  44
BRANCH   8  59
ATOM     59  C   UNL     1      20.927  -2.175  21.887  1.00  0.00     0.311 C 
ATOM     60  O   UNL     1      21.668  -2.623  22.792  1.00  0.00    -0.252 OA
BRANCH  59  61
ATOM     61  O   UNL     1      21.106  -0.882  21.526  1.00  0.00    -0.481 OA
ATOM     62  H   UNL     1      21.991  -0.767  21.172  1.00  0.00     0.296 HD
ENDBRANCH  59  61
ENDBRANCH   8  59
BRANCH   5  63
ATOM     63  O   UNL     1      16.828  -0.962  22.972  1.00  0.00    -0.365 OA
ATOM     64  H   UNL     1      16.076  -0.488  22.609  1.00  0.00     0.214 HD
ENDBRANCH   5  63
BRANCH   7  65
ATOM     65  O   UNL     1      18.338  -3.120  19.348  1.00  0.00    -0.392 OA
ATOM     66  H   UNL     1      18.901  -3.339  18.601  1.00  0.00     0.210 HD
ENDBRANCH   7  65
BRANCH  10  67
ATOM     67  O   UNL     1      14.402  -2.599  23.475  1.00  0.00    -0.393 OA
ATOM     68  H   UNL     1      14.201  -1.759  23.056  1.00  0.00     0.210 HD
ENDBRANCH  10  67
BRANCH  12  69
ATOM     69  O   UNL     1      14.546  -6.565  22.276  1.00  0.00    -0.390 OA
ATOM     70  H   UNL     1      13.802  -7.167  22.352  1.00  0.00     0.211 HD
ENDBRANCH  12  69
BRANCH  13  71
ATOM     71  O   UNL     1      13.730  -7.602  19.846  1.00  0.00    -0.390 OA
ATOM     72  H   UNL     1      12.977  -8.179  19.696  1.00  0.00     0.211 HD
ENDBRANCH  13  71
BRANCH  16  73
ATOM     73  O   UNL     1      15.041  -3.772  16.328  1.00  0.00    -0.393 OA
ATOM     74  H   UNL     1      15.388  -4.382  15.672  1.00  0.00     0.210 HD
ENDBRANCH  16  73
BRANCH  18  75
ATOM     75  O   UNL     1      13.317  -2.856  14.246  1.00  0.00    -0.392 OA
ATOM     76  H   UNL     1      14.014  -3.215  13.691  1.00  0.00     0.210 HD
ENDBRANCH  18  75
BRANCH  27  77
ATOM     77  O   UNL     1       5.875  -7.144  12.095  1.00  0.00    -0.392 OA
ATOM     78  H   UNL     1       5.738  -6.308  12.546  1.00  0.00     0.210 HD
ENDBRANCH  27  77
TORSDOF 15
ENDMDL
MODEL 2
REMARK VINA RESULT:    16.062      1.506      2.055
REMARK INTER + INTRA:          23.877
REMARK INTER:                  24.654
REMARK INTRA:                  -0.776
REMARK UNBOUND:                -0.635
REMARK SMILES C[C@@H]1[C@H](O)[C@@H](C)/C=C/C=C/C=C/C=C/C=C/C=C/C=C/[C@H](O[C@@H]2O[C@H](C)[C@@H](O)[C@H](N)[C@@H]2O)C[C@@H]2O[C@](O)(C[C@@H](O)C[C@@H](O)[C@H](O)CC[C@@H](O)C[C@@H](O)CC(=O)O[C@H]1C)C[C@H](O)[C@H]2C(=O)O
REMARK SMILES IDX 21 1 33 2 34 3 35 4 36 5 59 6 60 7 62 8 38 9 39 10 41 11
REMARK SMILES IDX 42 12 44 13 46 14 47 15 48 16 50 17 51 18 53 19 54 20 55 21
REMARK SMILES IDX 56 22 57 23 58 24 2 25 1 26 3 27 5 28 6 29 7 30 8 31 9 32
REMARK SMILES IDX 10 33 11 34 12 35 13 36 14 37 15 38 16 39 17 40 18 41 19 42
REMARK SMILES IDX 20 43 22 44 23 45 26 46 25 47 24 48 27 49 29 50 31 51 28 52
REMARK SMILES IDX 30 54 32 57 63 59 64 60 65 61 37 63 61 65 40 67 43 69 45 71
REMARK SMILES IDX 49 73 52 75 4 77
REMARK H PARENT 28 53 30 55 30 56 32 58 65 62 37 64 61 66 40 68 43 70 45 72
REMARK H PARENT 49 74 52 76 4 78
REMARK Flexibility Score: inf
ROOT
ATOM      1  C   UNL     1      19.203  -6.493  21.159  1.00  0.00     0.147 C 
ATOM      2  C   UNL     1      18.401  -5.305  21.796  1.00  0.00     0.069 C 
ATOM      3  C   UNL     1      19.134  -4.008  22.260  1.00  0.00     0.141 C 
ATOM      4  O   UNL     1      18.199  -3.082  22.875  1.00  0.00    -0.346 OA
ATOM      5  C   UNL     1      17.407  -2.168  22.065  1.00  0.00     0.170 C 
ATOM      6  C   UNL     1      18.263  -1.476  20.953  1.00  0.00     0.098 C 
ATOM      7  C   UNL     1      19.218  -2.447  20.212  1.00  0.00     0.136 C 
ATOM      8  C   UNL     1      20.064  -3.282  21.221  1.00  0.00     0.157 C 
ATOM      9  C   UNL     1      16.056  -2.751  21.515  1.00  0.00     0.097 C 
ATOM     10  C   UNL     1      15.176  -3.572  22.514  1.00  0.00     0.122 C 
ATOM     11  C   UNL     1      14.007  -4.346  21.818  1.00  0.00     0.066 C 
ATOM     12  C   UNL     1      14.400  -5.719  21.186  1.00  0.00     0.145 C 
ATOM     13  C   UNL     1      13.335  -6.340  20.219  1.00  0.00     0.143 C 
ATOM     14  C   UNL     1      12.982  -5.535  18.926  1.00  0.00     0.037 C 
ATOM     15  C   UNL     1      14.183  -5.219  17.989  1.00  0.00     0.034 C 
ATOM     16  C   UNL     1      13.881  -4.267  16.790  1.00  0.00     0.117 C 
ATOM     17  C   UNL     1      13.070  -4.889  15.603  1.00  0.00     0.064 C 
ATOM     18  C   UNL     1      12.494  -3.853  14.577  1.00  0.00     0.128 C 
ATOM     19  C   UNL     1      12.023  -4.450  13.214  1.00  0.00     0.154 C 
ATOM     20  C   UNL     1      10.806  -5.282  13.288  1.00  0.00     0.308 C 
ATOM     21  O   UNL     1      10.872  -6.421  13.807  1.00  0.00    -0.252 OA
ATOM     22  O   UNL     1       9.626  -4.799  12.781  1.00  0.00    -0.462 OA
ATOM     23  C   UNL     1       8.328  -5.433  12.779  1.00  0.00     0.178 C 
ATOM     24  C   UNL     1       7.455  -4.642  13.792  1.00  0.00     0.053 C 
ATOM     25  C   UNL     1       7.783  -5.536  11.302  1.00  0.00     0.056 C 
ATOM     26  C   UNL     1       7.174  -4.192  10.797  1.00  0.00     0.014 C 
ATOM     27  C   UNL     1       6.796  -6.740  11.033  1.00  0.00     0.127 C 
ATOM     28  C   UNL     1       7.432  -8.133  10.662  1.00  0.00     0.038 C 
ATOM     29  C   UNL     1       8.043  -8.122   9.223  1.00  0.00     0.015 C 
ATOM     30  C   UNL     1       8.279  -8.674  11.736  1.00  0.00    -0.021 C 
ATOM     31  C   UNL     1       9.549  -9.122  11.642  1.00  0.00    -0.004 C 
ATOM     32  C   UNL     1      10.298  -9.475  12.730  1.00  0.00    -0.000 C 
ATOM     33  C   UNL     1      11.503 -10.079  12.663  1.00  0.00    -0.000 C 
ATOM     34  C   UNL     1      12.315 -10.244  13.754  1.00  0.00    -0.000 C 
ATOM     35  C   UNL     1      13.592 -10.673  13.687  1.00  0.00    -0.000 C 
ATOM     36  C   UNL     1      14.450 -10.612  14.750  1.00  0.00    -0.000 C 
ATOM     37  C   UNL     1      15.791 -10.658  14.611  1.00  0.00    -0.000 C 
ATOM     38  C   UNL     1      16.735 -10.371  15.557  1.00  0.00    -0.000 C 
ATOM     39  C   UNL     1      16.538  -9.674  16.697  1.00  0.00    -0.000 C 
ATOM     40  C   UNL     1      17.554  -9.198  17.476  1.00  0.00    -0.000 C 
ATOM     41  C   UNL     1      17.347  -8.398  18.539  1.00  0.00    -0.000 C 
ATOM     42  C   UNL     1      18.343  -7.751  19.199  1.00  0.00    -0.002 C 
ATOM     43  C   UNL     1      18.251  -7.383  20.489  1.00  0.00     0.005 C 
ENDROOT
BRANCH   1  44
ATOM     44  O   UNL     1      19.916  -7.336  22.094  1.00  0.00    -0.342 OA
BRANCH  44  45
ATOM     45  C   UNL     1      19.263  -8.514  22.617  1.00  0.00     0.281 C 
ATOM     46  C   UNL     1      18.142  -9.236  26.122  1.00  0.00     0.041 C 
ATOM     47  C   UNL     1      18.354  -9.548  24.623  1.00  0.00     0.148 C 
ATOM     48  O   UNL     1      19.070  -8.435  24.047  1.00  0.00    -0.344 OA
ATOM     49  C   UNL     1      19.140 -10.873  24.380  1.00  0.00     0.162 C 
ATOM     50  C   UNL     1      19.471 -11.043  22.868  1.00  0.00     0.116 C 
ATOM     51  C   UNL     1      20.131  -9.759  22.286  1.00  0.00     0.190 C 
BRANCH  49  52
ATOM     52  O   UNL     1      18.395 -11.997  24.849  1.00  0.00    -0.389 OA
ATOM     53  H   UNL     1      17.505 -11.718  25.076  1.00  0.00     0.211 HD
ENDBRANCH  49  52
BRANCH  50  54
ATOM     54  N   UNL     1      20.338 -12.212  22.655  1.00  0.00    -0.323 NA
ATOM     55  H   UNL     1      21.141 -12.360  23.251  1.00  0.00     0.119 HD
ATOM     56  H   UNL     1      20.131 -12.868  21.915  1.00  0.00     0.119 HD
ENDBRANCH  50  54
BRANCH  51  57
ATOM     57  O   UNL     1      21.444  -9.595  22.825  1.00  0.00    -0.386 OA
ATOM     58  H   UNL     1      21.400  -9.052  23.615  1.00  0.00     0.211 HD
ENDBRANCH  51  57
ENDBRANCH  44  45
ENDBRANCH   1  44
BRANCH   8  59
ATOM     59  C   UNL     1      21.117  -2.438  21.855  1.00  0.00     0.311 C 
ATOM     60  O   UNL     1      21.720  -2.843  22.875  1.00  0.00    -0.252 OA
BRANCH  59  61
ATOM     61  O   UNL     1      21.466  -1.221  21.375  1.00  0.00    -0.481 OA
ATOM     62  H   UNL     1      20.693  -0.789  21.002  1.00  0.00     0.296 HD
ENDBRANCH  59  61
ENDBRANCH   8  59
BRANCH   5  63
ATOM     63  O   UNL     1      17.059  -1.119  22.974  1.00  0.00    -0.365 OA
ATOM     64  H   UNL     1      16.243  -1.346  23.426  1.00  0.00     0.214 HD
ENDBRANCH   5  63
BRANCH   7  65
ATOM     65  O   UNL     1      18.488  -3.290  19.324  1.00  0.00    -0.392 OA
ATOM     66  H   UNL     1      19.094  -3.706  18.706  1.00  0.00     0.210 HD
ENDBRANCH   7  65
BRANCH  10  67
ATOM     67  O   UNL     1      14.591  -2.692  23.477  1.00  0.00    -0.393 OA
ATOM     68  H   UNL     1      13.658  -2.579  23.281  1.00  0.00     0.210 HD
ENDBRANCH  10  67
BRANCH  12  69
ATOM     69  O   UNL     1      14.617  -6.650  22.247  1.00  0.00    -0.390 OA
ATOM     70  H   UNL     1      14.532  -7.546  21.910  1.00  0.00     0.211 HD
ENDBRANCH  12  69
BRANCH  13  71
ATOM     71  O   UNL     1      13.759  -7.645  19.814  1.00  0.00    -0.390 OA
ATOM     72  H   UNL     1      14.428  -7.566  19.130  1.00  0.00     0.211 HD
ENDBRANCH  13  71
BRANCH  16  73
ATOM     73  O   UNL     1      15.157  -3.825  16.319  1.00  0.00    -0.393 OA
ATOM     74  H   UNL     1      15.610  -4.556  15.891  1.00  0.00     0.210 HD
ENDBRANCH  16  73
BRANCH  18  75
ATOM     75  O   UNL     1      13.448  -2.845  14.254  1.00  0.00    -0.392 OA
ATOM     76  H   UNL     1      14.261  -3.006  14.739  1.00  0.00     0.210 HD
ENDBRANCH  18  75
BRANCH  27  77
ATOM     77  O   UNL     1       5.877  -6.906  12.113  1.00  0.00    -0.392 OA
ATOM     78  H   UNL     1       5.321  -6.126  12.183  1.00  0.00     0.210 HD
ENDBRANCH  27  77
TORSDOF 15
ENDMDL
