MODEL 1
REMARK VINA RESULT:    -4.374      0.000      0.000
REMARK INTER + INTRA:          -7.833
REMARK INTER:                  -6.675
REMARK INTRA:                  -1.159
REMARK UNBOUND:                -1.159
REMARK SMILES C[C@@H]1[C@H](O)[C@@H](C)/C=C/C=C/C=C/C=C/C=C/C=C/C=C/[C@H](O[C@@H]2O[C@H](C)[C@@H](O)[C@H](N)[C@@H]2O)C[C@@H]2O[C@](O)(C[C@@H](O)C[C@@H](O)[C@H](O)CC[C@@H](O)C[C@@H](O)CC(=O)O[C@H]1C)C[C@H](O)[C@H]2C(=O)O
REMARK SMILES IDX 21 1 33 2 34 3 35 4 36 5 59 6 60 7 62 8 38 9 39 10 41 11
REMARK SMILES IDX 42 12 44 13 46 14 47 15 48 16 50 17 51 18 53 19 54 20 55 21
REMARK SMILES IDX 56 22 57 23 58 24 2 25 1 26 3 27 5 28 6 29 7 30 8 31 9 32
REMARK SMILES IDX 10 33 11 34 12 35 13 36 14 37 15 38 16 39 17 40 18 41 19 42
REMARK SMILES IDX 20 43 22 44 23 45 26 46 25 47 24 48 27 49 29 50 31 51 28 52
REMARK SMILES IDX 30 54 32 57 63 59 64 60 65 61 37 63 61 65 40 67 43 69 45 71
REMARK SMILES IDX 49 73 52 75 4 77
REMARK H PARENT 28 53 30 55 30 56 32 58 65 62 37 64 61 66 40 68 43 70 45 72
REMARK H PARENT 49 74 52 76 4 78
REMARK Flexibility Score: inf
ROOT
ATOM      1  C   UNL     1      16.389   2.646 -13.736  1.00  0.00     0.147 C 
ATOM      2  C   UNL     1      15.928   2.569 -12.238  1.00  0.00     0.069 C 
ATOM      3  C   UNL     1      16.268   1.321 -11.364  1.00  0.00     0.141 C 
ATOM      4  O   UNL     1      15.682   1.448 -10.040  1.00  0.00    -0.346 OA
ATOM      5  C   UNL     1      16.364   2.189  -8.988  1.00  0.00     0.170 C 
ATOM      6  C   UNL     1      17.888   1.843  -8.918  1.00  0.00     0.098 C 
ATOM      7  C   UNL     1      18.573   1.780 -10.308  1.00  0.00     0.136 C 
ATOM      8  C   UNL     1      17.771   0.870 -11.288  1.00  0.00     0.157 C 
ATOM      9  C   UNL     1      16.090   3.735  -8.965  1.00  0.00     0.097 C 
ATOM     10  C   UNL     1      14.609   4.200  -9.153  1.00  0.00     0.122 C 
ATOM     11  C   UNL     1      14.468   5.739  -9.401  1.00  0.00     0.066 C 
ATOM     12  C   UNL     1      14.698   6.200 -10.876  1.00  0.00     0.145 C 
ATOM     13  C   UNL     1      14.882   7.743 -11.074  1.00  0.00     0.143 C 
ATOM     14  C   UNL     1      16.113   8.414 -10.382  1.00  0.00     0.037 C 
ATOM     15  C   UNL     1      17.500   7.830 -10.776  1.00  0.00     0.034 C 
ATOM     16  C   UNL     1      18.721   8.365  -9.965  1.00  0.00     0.117 C 
ATOM     17  C   UNL     1      19.193   9.818 -10.310  1.00  0.00     0.064 C 
ATOM     18  C   UNL     1      20.186  10.457  -9.277  1.00  0.00     0.128 C 
ATOM     19  C   UNL     1      20.953  11.720  -9.777  1.00  0.00     0.154 C 
ATOM     20  C   UNL     1      20.119  12.925  -9.949  1.00  0.00     0.308 C 
ATOM     21  O   UNL     1      19.318  12.984 -10.911  1.00  0.00    -0.252 OA
ATOM     22  O   UNL     1      20.240  13.963  -9.059  1.00  0.00    -0.462 OA
ATOM     23  C   UNL     1      19.505  15.206  -9.030  1.00  0.00     0.178 C 
ATOM     24  C   UNL     1      18.561  15.125  -7.798  1.00  0.00     0.053 C 
ATOM     25  C   UNL     1      20.507  16.423  -9.077  1.00  0.00     0.056 C 
ATOM     26  C   UNL     1      21.147  16.721  -7.687  1.00  0.00     0.014 C 
ATOM     27  C   UNL     1      19.931  17.743  -9.728  1.00  0.00     0.127 C 
ATOM     28  C   UNL     1      20.030  17.884 -11.294  1.00  0.00     0.038 C 
ATOM     29  C   UNL     1      21.503  18.124 -11.758  1.00  0.00     0.015 C 
ATOM     30  C   UNL     1      19.273  16.843 -12.006  1.00  0.00    -0.021 C 
ATOM     31  C   UNL     1      19.712  16.028 -12.989  1.00  0.00    -0.004 C 
ATOM     32  C   UNL     1      18.968  14.995 -13.490  1.00  0.00    -0.000 C 
ATOM     33  C   UNL     1      19.304  14.270 -14.576  1.00  0.00    -0.000 C 
ATOM     34  C   UNL     1      18.647  13.124 -14.940  1.00  0.00    -0.000 C 
ATOM     35  C   UNL     1      19.071  12.284 -15.905  1.00  0.00    -0.000 C 
ATOM     36  C   UNL     1      18.532  11.041 -16.093  1.00  0.00    -0.000 C 
ATOM     37  C   UNL     1      19.175  10.059 -16.760  1.00  0.00    -0.000 C 
ATOM     38  C   UNL     1      18.846   8.732 -16.805  1.00  0.00    -0.000 C 
ATOM     39  C   UNL     1      18.034   8.081 -15.945  1.00  0.00    -0.000 C 
ATOM     40  C   UNL     1      17.942   6.720 -15.879  1.00  0.00    -0.000 C 
ATOM     41  C   UNL     1      17.226   6.081 -14.934  1.00  0.00    -0.000 C 
ATOM     42  C   UNL     1      17.284   4.740 -14.724  1.00  0.00    -0.002 C 
ATOM     43  C   UNL     1      16.275   4.037 -14.181  1.00  0.00     0.005 C 
ENDROOT
BRANCH   1  44
ATOM     44  O   UNL     1      15.595   1.881 -14.673  1.00  0.00    -0.342 OA
BRANCH  44  45
ATOM     45  C   UNL     1      14.343   1.310 -14.230  1.00  0.00     0.281 C 
ATOM     46  C   UNL     1      12.853  -2.034 -15.043  1.00  0.00     0.041 C 
ATOM     47  C   UNL     1      12.893  -0.638 -14.379  1.00  0.00     0.148 C 
ATOM     48  O   UNL     1      14.092   0.022 -14.837  1.00  0.00    -0.344 OA
ATOM     49  C   UNL     1      11.642   0.232 -14.712  1.00  0.00     0.162 C 
ATOM     50  C   UNL     1      11.821   1.678 -14.163  1.00  0.00     0.116 C 
ATOM     51  C   UNL     1      13.189   2.283 -14.596  1.00  0.00     0.190 C 
BRANCH  49  52
ATOM     52  O   UNL     1      10.459  -0.356 -14.172  1.00  0.00    -0.389 OA
ATOM     53  H   UNL     1      10.640  -0.686 -13.289  1.00  0.00     0.211 HD
ENDBRANCH  49  52
BRANCH  50  54
ATOM     54  N   UNL     1      10.713   2.540 -14.602  1.00  0.00    -0.323 NA
ATOM     55  H   UNL     1       9.793   2.425 -14.197  1.00  0.00     0.119 HD
ATOM     56  H   UNL     1      10.869   3.245 -15.307  1.00  0.00     0.119 HD
ENDBRANCH  50  54
BRANCH  51  57
ATOM     57  O   UNL     1      13.190   2.534 -16.002  1.00  0.00    -0.386 OA
ATOM     58  H   UNL     1      12.969   3.454 -16.163  1.00  0.00     0.211 HD
ENDBRANCH  51  57
ENDBRANCH  44  45
ENDBRANCH   1  44
BRANCH   8  59
ATOM     59  C   UNL     1      17.941  -0.569 -10.934  1.00  0.00     0.311 C 
ATOM     60  O   UNL     1      19.016  -1.158 -11.190  1.00  0.00    -0.252 OA
BRANCH  59  61
ATOM     61  O   UNL     1      16.969  -1.294 -10.333  1.00  0.00    -0.481 OA
ATOM     62  H   UNL     1      17.305  -2.168 -10.120  1.00  0.00     0.296 HD
ENDBRANCH  59  61
ENDBRANCH   8  59
BRANCH   5  63
ATOM     63  O   UNL     1      15.806   1.658  -7.782  1.00  0.00    -0.365 OA
ATOM     64  H   UNL     1      16.327   0.905  -7.493  1.00  0.00     0.214 HD
ENDBRANCH   5  63
BRANCH   7  65
ATOM     65  O   UNL     1      18.749   3.090 -10.842  1.00  0.00    -0.392 OA
ATOM     66  H   UNL     1      19.666   3.210 -11.100  1.00  0.00     0.210 HD
ENDBRANCH   7  65
BRANCH  10  67
ATOM     67  O   UNL     1      13.852   3.886  -7.981  1.00  0.00    -0.393 OA
ATOM     68  H   UNL     1      14.451   3.665  -7.264  1.00  0.00     0.210 HD
ENDBRANCH  10  67
BRANCH  12  69
ATOM     69  O   UNL     1      13.567   5.795 -11.649  1.00  0.00    -0.390 OA
ATOM     70  H   UNL     1      12.941   6.521 -11.705  1.00  0.00     0.211 HD
ENDBRANCH  12  69
BRANCH  13  71
ATOM     71  O   UNL     1      14.954   8.041 -12.471  1.00  0.00    -0.390 OA
ATOM     72  H   UNL     1      15.858   7.929 -12.775  1.00  0.00     0.211 HD
ENDBRANCH  13  71
BRANCH  16  73
ATOM     73  O   UNL     1      19.785   7.443 -10.219  1.00  0.00    -0.393 OA
ATOM     74  H   UNL     1      19.624   6.990 -11.050  1.00  0.00     0.210 HD
ENDBRANCH  16  73
BRANCH  18  75
ATOM     75  O   UNL     1      21.187   9.528  -8.865  1.00  0.00    -0.392 OA
ATOM     76  H   UNL     1      21.795   9.370  -9.590  1.00  0.00     0.210 HD
ENDBRANCH  18  75
BRANCH  27  77
ATOM     77  O   UNL     1      18.587  17.981  -9.310  1.00  0.00    -0.392 OA
ATOM     78  H   UNL     1      18.002  17.353  -9.740  1.00  0.00     0.210 HD
ENDBRANCH  27  77
TORSDOF 15
ENDMDL
MODEL 2
REMARK VINA RESULT:    -3.846      1.155      1.580
REMARK INTER + INTRA:          -7.029
REMARK INTER:                  -6.139
REMARK INTRA:                  -0.890
REMARK UNBOUND:                -1.159
REMARK SMILES C[C@@H]1[C@H](O)[C@@H](C)/C=C/C=C/C=C/C=C/C=C/C=C/C=C/[C@H](O[C@@H]2O[C@H](C)[C@@H](O)[C@H](N)[C@@H]2O)C[C@@H]2O[C@](O)(C[C@@H](O)C[C@@H](O)[C@H](O)CC[C@@H](O)C[C@@H](O)CC(=O)O[C@H]1C)C[C@H](O)[C@H]2C(=O)O
REMARK SMILES IDX 21 1 33 2 34 3 35 4 36 5 59 6 60 7 62 8 38 9 39 10 41 11
REMARK SMILES IDX 42 12 44 13 46 14 47 15 48 16 50 17 51 18 53 19 54 20 55 21
REMARK SMILES IDX 56 22 57 23 58 24 2 25 1 26 3 27 5 28 6 29 7 30 8 31 9 32
REMARK SMILES IDX 10 33 11 34 12 35 13 36 14 37 15 38 16 39 17 40 18 41 19 42
REMARK SMILES IDX 20 43 22 44 23 45 26 46 25 47 24 48 27 49 29 50 31 51 28 52
REMARK SMILES IDX 30 54 32 57 63 59 64 60 65 61 37 63 61 65 40 67 43 69 45 71
REMARK SMILES IDX 49 73 52 75 4 77
REMARK H PARENT 28 53 30 55 30 56 32 58 65 62 37 64 61 66 40 68 43 70 45 72
REMARK H PARENT 49 74 52 76 4 78
REMARK Flexibility Score: inf
ROOT
ATOM      1  C   UNL     1      15.973   2.413 -13.007  1.00  0.00     0.147 C 
ATOM      2  C   UNL     1      15.846   2.413 -11.444  1.00  0.00     0.069 C 
ATOM      3  C   UNL     1      16.391   1.217 -10.602  1.00  0.00     0.141 C 
ATOM      4  O   UNL     1      16.101   1.410  -9.191  1.00  0.00    -0.346 OA
ATOM      5  C   UNL     1      16.977   2.213  -8.349  1.00  0.00     0.170 C 
ATOM      6  C   UNL     1      18.487   1.886  -8.591  1.00  0.00     0.098 C 
ATOM      7  C   UNL     1      18.859   1.754 -10.091  1.00  0.00     0.136 C 
ATOM      8  C   UNL     1      17.885   0.785 -10.828  1.00  0.00     0.157 C 
ATOM      9  C   UNL     1      16.682   3.755  -8.346  1.00  0.00     0.097 C 
ATOM     10  C   UNL     1      15.186   4.195  -8.233  1.00  0.00     0.122 C 
ATOM     11  C   UNL     1      14.963   5.717  -8.523  1.00  0.00     0.066 C 
ATOM     12  C   UNL     1      14.861   6.100 -10.034  1.00  0.00     0.145 C 
ATOM     13  C   UNL     1      14.966   7.631 -10.344  1.00  0.00     0.143 C 
ATOM     14  C   UNL     1      16.303   8.351  -9.969  1.00  0.00     0.037 C 
ATOM     15  C   UNL     1      17.585   7.760 -10.623  1.00  0.00     0.034 C 
ATOM     16  C   UNL     1      18.940   8.349 -10.122  1.00  0.00     0.117 C 
ATOM     17  C   UNL     1      19.297   9.786 -10.633  1.00  0.00     0.064 C 
ATOM     18  C   UNL     1      20.475  10.489  -9.872  1.00  0.00     0.128 C 
ATOM     19  C   UNL     1      21.090  11.730 -10.588  1.00  0.00     0.154 C 
ATOM     20  C   UNL     1      20.213  12.917 -10.638  1.00  0.00     0.308 C 
ATOM     21  O   UNL     1      19.224  12.916 -11.406  1.00  0.00    -0.252 OA
ATOM     22  O   UNL     1      20.501  14.002  -9.848  1.00  0.00    -0.462 OA
ATOM     23  C   UNL     1      19.764  15.237  -9.725  1.00  0.00     0.178 C 
ATOM     24  C   UNL     1      19.108  15.215  -8.316  1.00  0.00     0.053 C 
ATOM     25  C   UNL     1      20.707  16.460 -10.048  1.00  0.00     0.056 C 
ATOM     26  C   UNL     1      21.624  16.839  -8.845  1.00  0.00     0.014 C 
ATOM     27  C   UNL     1      19.977  17.737 -10.625  1.00  0.00     0.127 C 
ATOM     28  C   UNL     1      19.734  17.795 -12.181  1.00  0.00     0.038 C 
ATOM     29  C   UNL     1      21.068  18.023 -12.963  1.00  0.00     0.015 C 
ATOM     30  C   UNL     1      18.864  16.710 -12.660  1.00  0.00    -0.021 C 
ATOM     31  C   UNL     1      19.099  15.847 -13.672  1.00  0.00    -0.004 C 
ATOM     32  C   UNL     1      18.286  14.782 -13.948  1.00  0.00    -0.000 C 
ATOM     33  C   UNL     1      18.397  14.003 -15.043  1.00  0.00    -0.000 C 
ATOM     34  C   UNL     1      17.701  12.833 -15.198  1.00  0.00    -0.000 C 
ATOM     35  C   UNL     1      17.926  11.945 -16.188  1.00  0.00    -0.000 C 
ATOM     36  C   UNL     1      17.385  10.689 -16.193  1.00  0.00    -0.000 C 
ATOM     37  C   UNL     1      17.890   9.679 -16.932  1.00  0.00    -0.000 C 
ATOM     38  C   UNL     1      17.587   8.349 -16.838  1.00  0.00    -0.000 C 
ATOM     39  C   UNL     1      16.992   7.737 -15.791  1.00  0.00    -0.000 C 
ATOM     40  C   UNL     1      16.945   6.380 -15.638  1.00  0.00    -0.000 C 
ATOM     41  C   UNL     1      16.461   5.787 -14.530  1.00  0.00    -0.000 C 
ATOM     42  C   UNL     1      16.592   4.459 -14.270  1.00  0.00    -0.002 C 
ATOM     43  C   UNL     1      15.737   3.777 -13.488  1.00  0.00     0.005 C 
ENDROOT
BRANCH   1  44
ATOM     44  O   UNL     1      15.012   1.592 -13.712  1.00  0.00    -0.342 OA
BRANCH  44  45
ATOM     45  C   UNL     1      13.903   2.228 -14.383  1.00  0.00     0.281 C 
ATOM     46  C   UNL     1      11.018   4.118 -12.909  1.00  0.00     0.041 C 
ATOM     47  C   UNL     1      11.856   3.503 -14.053  1.00  0.00     0.148 C 
ATOM     48  O   UNL     1      12.952   2.785 -13.447  1.00  0.00    -0.344 OA
ATOM     49  C   UNL     1      11.031   2.546 -14.968  1.00  0.00     0.162 C 
ATOM     50  C   UNL     1      11.962   1.827 -15.989  1.00  0.00     0.116 C 
ATOM     51  C   UNL     1      13.186   1.180 -15.278  1.00  0.00     0.190 C 
BRANCH  49  52
ATOM     52  O   UNL     1      10.008   3.264 -15.658  1.00  0.00    -0.389 OA
ATOM     53  H   UNL     1       9.278   2.671 -15.854  1.00  0.00     0.211 HD
ENDBRANCH  49  52
BRANCH  50  54
ATOM     54  N   UNL     1      11.213   0.817 -16.752  1.00  0.00    -0.323 NA
ATOM     55  H   UNL     1      10.797   0.030 -16.274  1.00  0.00     0.119 HD
ATOM     56  H   UNL     1      11.115   0.910 -17.752  1.00  0.00     0.119 HD
ENDBRANCH  50  54
BRANCH  51  57
ATOM     57  O   UNL     1      12.762   0.070 -14.483  1.00  0.00    -0.386 OA
ATOM     58  H   UNL     1      11.936  -0.274 -14.831  1.00  0.00     0.211 HD
ENDBRANCH  51  57
ENDBRANCH  44  45
ENDBRANCH   1  44
BRANCH   8  59
ATOM     59  C   UNL     1      18.157  -0.631 -10.447  1.00  0.00     0.311 C 
ATOM     60  O   UNL     1      19.186  -1.209 -10.866  1.00  0.00    -0.252 OA
BRANCH  59  61
ATOM     61  O   UNL     1      17.329  -1.346  -9.649  1.00  0.00    -0.481 OA
ATOM     62  H   UNL     1      16.421  -1.074  -9.805  1.00  0.00     0.296 HD
ENDBRANCH  59  61
ENDBRANCH   8  59
BRANCH   5  63
ATOM     63  O   UNL     1      16.702   1.742  -7.026  1.00  0.00    -0.365 OA
ATOM     64  H   UNL     1      17.456   1.245  -6.701  1.00  0.00     0.214 HD
ENDBRANCH   5  63
BRANCH   7  65
ATOM     65  O   UNL     1      18.889   3.035 -10.716  1.00  0.00    -0.392 OA
ATOM     66  H   UNL     1      19.799   3.279 -10.903  1.00  0.00     0.210 HD
ENDBRANCH   7  65
BRANCH  10  67
ATOM     67  O   UNL     1      14.705   3.937  -6.912  1.00  0.00    -0.393 OA
ATOM     68  H   UNL     1      14.098   3.194  -6.932  1.00  0.00     0.210 HD
ENDBRANCH  10  67
BRANCH  12  69
ATOM     69  O   UNL     1      13.599   5.643 -10.524  1.00  0.00    -0.390 OA
ATOM     70  H   UNL     1      13.703   5.321 -11.423  1.00  0.00     0.211 HD
ENDBRANCH  12  69
BRANCH  13  71
ATOM     71  O   UNL     1      14.731   7.855 -11.738  1.00  0.00    -0.390 OA
ATOM     72  H   UNL     1      13.786   7.913 -11.897  1.00  0.00     0.211 HD
ENDBRANCH  13  71
BRANCH  16  73
ATOM     73  O   UNL     1      19.944   7.425 -10.552  1.00  0.00    -0.393 OA
ATOM     74  H   UNL     1      20.386   7.054  -9.784  1.00  0.00     0.210 HD
ENDBRANCH  16  73
BRANCH  18  75
ATOM     75  O   UNL     1      21.560   9.593  -9.639  1.00  0.00    -0.392 OA
ATOM     76  H   UNL     1      22.282  10.067  -9.220  1.00  0.00     0.210 HD
ENDBRANCH  18  75
BRANCH  27  77
ATOM     77  O   UNL     1      18.749  17.984  -9.940  1.00  0.00    -0.392 OA
ATOM     78  H   UNL     1      18.910  18.010  -8.994  1.00  0.00     0.210 HD
ENDBRANCH  27  77
TORSDOF 15
ENDMDL
MODEL 3
REMARK VINA RESULT:    -3.381      2.032      2.638
REMARK INTER + INTRA:          -6.318
REMARK INTER:                  -5.108
REMARK INTRA:                  -1.211
REMARK UNBOUND:                -1.159
REMARK SMILES C[C@@H]1[C@H](O)[C@@H](C)/C=C/C=C/C=C/C=C/C=C/C=C/C=C/[C@H](O[C@@H]2O[C@H](C)[C@@H](O)[C@H](N)[C@@H]2O)C[C@@H]2O[C@](O)(C[C@@H](O)C[C@@H](O)[C@H](O)CC[C@@H](O)C[C@@H](O)CC(=O)O[C@H]1C)C[C@H](O)[C@H]2C(=O)O
REMARK SMILES IDX 21 1 33 2 34 3 35 4 36 5 59 6 60 7 62 8 38 9 39 10 41 11
REMARK SMILES IDX 42 12 44 13 46 14 47 15 48 16 50 17 51 18 53 19 54 20 55 21
REMARK SMILES IDX 56 22 57 23 58 24 2 25 1 26 3 27 5 28 6 29 7 30 8 31 9 32
REMARK SMILES IDX 10 33 11 34 12 35 13 36 14 37 15 38 16 39 17 40 18 41 19 42
REMARK SMILES IDX 20 43 22 44 23 45 26 46 25 47 24 48 27 49 29 50 31 51 28 52
REMARK SMILES IDX 30 54 32 57 63 59 64 60 65 61 37 63 61 65 40 67 43 69 45 71
REMARK SMILES IDX 49 73 52 75 4 77
REMARK H PARENT 28 53 30 55 30 56 32 58 65 62 37 64 61 66 40 68 43 70 45 72
REMARK H PARENT 49 74 52 76 4 78
REMARK Flexibility Score: inf
ROOT
ATOM      1  C   UNL     1      17.939   1.928 -12.406  1.00  0.00     0.147 C 
ATOM      2  C   UNL     1      16.996   2.296 -11.208  1.00  0.00     0.069 C 
ATOM      3  C   UNL     1      17.062   1.497  -9.868  1.00  0.00     0.141 C 
ATOM      4  O   UNL     1      16.054   1.974  -8.937  1.00  0.00    -0.346 OA
ATOM      5  C   UNL     1      16.306   3.130  -8.089  1.00  0.00     0.170 C 
ATOM      6  C   UNL     1      17.725   3.081  -7.433  1.00  0.00     0.098 C 
ATOM      7  C   UNL     1      18.847   2.655  -8.417  1.00  0.00     0.136 C 
ATOM      8  C   UNL     1      18.463   1.347  -9.174  1.00  0.00     0.157 C 
ATOM      9  C   UNL     1      15.984   4.525  -8.736  1.00  0.00     0.097 C 
ATOM     10  C   UNL     1      14.641   4.650  -9.526  1.00  0.00     0.122 C 
ATOM     11  C   UNL     1      14.537   5.967 -10.367  1.00  0.00     0.066 C 
ATOM     12  C   UNL     1      15.241   5.924 -11.761  1.00  0.00     0.145 C 
ATOM     13  C   UNL     1      15.424   7.314 -12.460  1.00  0.00     0.143 C 
ATOM     14  C   UNL     1      16.318   8.371 -11.734  1.00  0.00     0.037 C 
ATOM     15  C   UNL     1      17.777   7.920 -11.437  1.00  0.00     0.034 C 
ATOM     16  C   UNL     1      18.625   8.890 -10.558  1.00  0.00     0.117 C 
ATOM     17  C   UNL     1      19.134  10.193 -11.263  1.00  0.00     0.064 C 
ATOM     18  C   UNL     1      19.688  11.298 -10.299  1.00  0.00     0.128 C 
ATOM     19  C   UNL     1      20.533  12.420 -10.980  1.00  0.00     0.154 C 
ATOM     20  C   UNL     1      19.765  13.341 -11.840  1.00  0.00     0.308 C 
ATOM     21  O   UNL     1      19.340  12.936 -12.947  1.00  0.00    -0.252 OA
ATOM     22  O   UNL     1      19.535  14.626 -11.415  1.00  0.00    -0.462 OA
ATOM     23  C   UNL     1      18.790  15.667 -12.084  1.00  0.00     0.178 C 
ATOM     24  C   UNL     1      17.484  15.863 -11.263  1.00  0.00     0.053 C 
ATOM     25  C   UNL     1      19.701  16.939 -12.280  1.00  0.00     0.056 C 
ATOM     26  C   UNL     1      19.815  17.796 -10.981  1.00  0.00     0.014 C 
ATOM     27  C   UNL     1      19.335  17.844 -13.522  1.00  0.00     0.127 C 
ATOM     28  C   UNL     1      19.959  17.453 -14.915  1.00  0.00     0.038 C 
ATOM     29  C   UNL     1      21.492  17.754 -14.963  1.00  0.00     0.015 C 
ATOM     30  C   UNL     1      19.531  16.123 -15.375  1.00  0.00    -0.021 C 
ATOM     31  C   UNL     1      20.309  15.103 -15.794  1.00  0.00    -0.004 C 
ATOM     32  C   UNL     1      19.820  13.855 -16.068  1.00  0.00    -0.000 C 
ATOM     33  C   UNL     1      20.535  12.866 -16.642  1.00  0.00    -0.000 C 
ATOM     34  C   UNL     1      20.085  11.575 -16.728  1.00  0.00    -0.000 C 
ATOM     35  C   UNL     1      20.845  10.534 -17.125  1.00  0.00    -0.000 C 
ATOM     36  C   UNL     1      20.449   9.232 -16.985  1.00  0.00    -0.000 C 
ATOM     37  C   UNL     1      21.317   8.199 -17.002  1.00  0.00    -0.000 C 
ATOM     38  C   UNL     1      21.073   6.903 -16.640  1.00  0.00    -0.000 C 
ATOM     39  C   UNL     1      20.040   6.465 -15.889  1.00  0.00    -0.000 C 
ATOM     40  C   UNL     1      19.980   5.213 -15.345  1.00  0.00    -0.000 C 
ATOM     41  C   UNL     1      19.008   4.830 -14.496  1.00  0.00    -0.000 C 
ATOM     42  C   UNL     1      19.041   3.671 -13.788  1.00  0.00    -0.002 C 
ATOM     43  C   UNL     1      17.933   3.043 -13.355  1.00  0.00     0.005 C 
ENDROOT
BRANCH   1  44
ATOM     44  O   UNL     1      17.542   0.770 -13.178  1.00  0.00    -0.342 OA
BRANCH  44  45
ATOM     45  C   UNL     1      16.307   0.816 -13.927  1.00  0.00     0.281 C 
ATOM     46  C   UNL     1      12.816   0.072 -12.775  1.00  0.00     0.041 C 
ATOM     47  C   UNL     1      13.902   0.469 -13.802  1.00  0.00     0.148 C 
ATOM     48  O   UNL     1      15.180   0.376 -13.137  1.00  0.00    -0.344 OA
ATOM     49  C   UNL     1      13.896  -0.431 -15.076  1.00  0.00     0.162 C 
ATOM     50  C   UNL     1      15.113  -0.097 -15.988  1.00  0.00     0.116 C 
ATOM     51  C   UNL     1      16.443  -0.096 -15.177  1.00  0.00     0.190 C 
BRANCH  49  52
ATOM     52  O   UNL     1      12.678  -0.269 -15.804  1.00  0.00    -0.389 OA
ATOM     53  H   UNL     1      11.979  -0.001 -15.203  1.00  0.00     0.211 HD
ENDBRANCH  49  52
BRANCH  50  54
ATOM     54  N   UNL     1      15.194  -1.041 -17.112  1.00  0.00    -0.323 NA
ATOM     55  H   UNL     1      16.092  -1.276 -17.511  1.00  0.00     0.119 HD
ATOM     56  H   UNL     1      14.352  -1.455 -17.486  1.00  0.00     0.119 HD
ENDBRANCH  50  54
BRANCH  51  57
ATOM     57  O   UNL     1      16.773  -1.428 -14.776  1.00  0.00    -0.386 OA
ATOM     58  H   UNL     1      16.235  -1.677 -14.022  1.00  0.00     0.211 HD
ENDBRANCH  51  57
ENDBRANCH  44  45
ENDBRANCH   1  44
BRANCH   8  59
ATOM     59  C   UNL     1      18.555   0.166  -8.269  1.00  0.00     0.311 C 
ATOM     60  O   UNL     1      19.674  -0.277  -7.922  1.00  0.00    -0.252 OA
BRANCH  59  61
ATOM     61  O   UNL     1      17.463  -0.474  -7.789  1.00  0.00    -0.481 OA
ATOM     62  H   UNL     1      17.446  -1.375  -8.123  1.00  0.00     0.296 HD
ENDBRANCH  59  61
ENDBRANCH   8  59
BRANCH   5  63
ATOM     63  O   UNL     1      15.389   2.963  -7.003  1.00  0.00    -0.365 OA
ATOM     64  H   UNL     1      15.701   3.459  -6.242  1.00  0.00     0.214 HD
ENDBRANCH   5  63
BRANCH   7  65
ATOM     65  O   UNL     1      19.147   3.713  -9.325  1.00  0.00    -0.392 OA
ATOM     66  H   UNL     1      18.342   3.990  -9.770  1.00  0.00     0.210 HD
ENDBRANCH   7  65
BRANCH  10  67
ATOM     67  O   UNL     1      13.541   4.640  -8.613  1.00  0.00    -0.393 OA
ATOM     68  H   UNL     1      12.772   5.033  -9.034  1.00  0.00     0.210 HD
ENDBRANCH  10  67
BRANCH  12  69
ATOM     69  O   UNL     1      14.458   5.101 -12.628  1.00  0.00    -0.390 OA
ATOM     70  H   UNL     1      14.062   4.389 -12.120  1.00  0.00     0.211 HD
ENDBRANCH  12  69
BRANCH  13  71
ATOM     71  O   UNL     1      15.960   7.122 -13.773  1.00  0.00    -0.390 OA
ATOM     72  H   UNL     1      16.908   7.274 -13.757  1.00  0.00     0.211 HD
ENDBRANCH  13  71
BRANCH  16  73
ATOM     73  O   UNL     1      19.745   8.122 -10.107  1.00  0.00    -0.393 OA
ATOM     74  H   UNL     1      20.116   8.528  -9.321  1.00  0.00     0.210 HD
ENDBRANCH  16  73
BRANCH  18  75
ATOM     75  O   UNL     1      20.521  10.742  -9.284  1.00  0.00    -0.392 OA
ATOM     76  H   UNL     1      20.997  11.447  -8.839  1.00  0.00     0.210 HD
ENDBRANCH  18  75
BRANCH  27  77
ATOM     77  O   UNL     1      17.921  17.991 -13.655  1.00  0.00    -0.392 OA
ATOM     78  H   UNL     1      17.633  17.586 -14.477  1.00  0.00     0.210 HD
ENDBRANCH  27  77
TORSDOF 15
ENDMDL
MODEL 4
REMARK VINA RESULT:    -2.176      3.268      4.565
REMARK INTER + INTRA:          -4.479
REMARK INTER:                  -3.196
REMARK INTRA:                  -1.283
REMARK UNBOUND:                -1.159
REMARK SMILES C[C@@H]1[C@H](O)[C@@H](C)/C=C/C=C/C=C/C=C/C=C/C=C/C=C/[C@H](O[C@@H]2O[C@H](C)[C@@H](O)[C@H](N)[C@@H]2O)C[C@@H]2O[C@](O)(C[C@@H](O)C[C@@H](O)[C@H](O)CC[C@@H](O)C[C@@H](O)CC(=O)O[C@H]1C)C[C@H](O)[C@H]2C(=O)O
REMARK SMILES IDX 21 1 33 2 34 3 35 4 36 5 59 6 60 7 62 8 38 9 39 10 41 11
REMARK SMILES IDX 42 12 44 13 46 14 47 15 48 16 50 17 51 18 53 19 54 20 55 21
REMARK SMILES IDX 56 22 57 23 58 24 2 25 1 26 3 27 5 28 6 29 7 30 8 31 9 32
REMARK SMILES IDX 10 33 11 34 12 35 13 36 14 37 15 38 16 39 17 40 18 41 19 42
REMARK SMILES IDX 20 43 22 44 23 45 26 46 25 47 24 48 27 49 29 50 31 51 28 52
REMARK SMILES IDX 30 54 32 57 63 59 64 60 65 61 37 63 61 65 40 67 43 69 45 71
REMARK SMILES IDX 49 73 52 75 4 77
REMARK H PARENT 28 53 30 55 30 56 32 58 65 62 37 64 61 66 40 68 43 70 45 72
REMARK H PARENT 49 74 52 76 4 78
REMARK Flexibility Score: inf
ROOT
ATOM      1  C   UNL     1      17.836   3.691 -13.597  1.00  0.00     0.147 C 
ATOM      2  C   UNL     1      17.328   2.816 -12.398  1.00  0.00     0.069 C 
ATOM      3  C   UNL     1      17.697   1.302 -12.305  1.00  0.00     0.141 C 
ATOM      4  O   UNL     1      17.061   0.689 -11.151  1.00  0.00    -0.346 OA
ATOM      5  C   UNL     1      17.669   0.769  -9.831  1.00  0.00     0.170 C 
ATOM      6  C   UNL     1      19.205   0.474  -9.872  1.00  0.00     0.098 C 
ATOM      7  C   UNL     1      19.940   1.177 -11.043  1.00  0.00     0.136 C 
ATOM      8  C   UNL     1      19.217   0.913 -12.399  1.00  0.00     0.157 C 
ATOM      9  C   UNL     1      17.321   2.057  -9.004  1.00  0.00     0.097 C 
ATOM     10  C   UNL     1      15.826   2.516  -8.996  1.00  0.00     0.122 C 
ATOM     11  C   UNL     1      15.620   3.947  -8.395  1.00  0.00     0.066 C 
ATOM     12  C   UNL     1      15.878   5.129  -9.383  1.00  0.00     0.145 C 
ATOM     13  C   UNL     1      15.993   6.543  -8.718  1.00  0.00     0.143 C 
ATOM     14  C   UNL     1      17.166   6.769  -7.709  1.00  0.00     0.037 C 
ATOM     15  C   UNL     1      18.592   6.517  -8.276  1.00  0.00     0.034 C 
ATOM     16  C   UNL     1      19.757   6.563  -7.240  1.00  0.00     0.117 C 
ATOM     17  C   UNL     1      20.171   7.986  -6.732  1.00  0.00     0.064 C 
ATOM     18  C   UNL     1      21.096   7.997  -5.465  1.00  0.00     0.128 C 
ATOM     19  C   UNL     1      21.817   9.348  -5.173  1.00  0.00     0.154 C 
ATOM     20  C   UNL     1      20.932  10.441  -4.722  1.00  0.00     0.308 C 
ATOM     21  O   UNL     1      20.163  10.986  -5.547  1.00  0.00    -0.252 OA
ATOM     22  O   UNL     1      20.973  10.844  -3.411  1.00  0.00    -0.462 OA
ATOM     23  C   UNL     1      20.178  11.863  -2.766  1.00  0.00     0.178 C 
ATOM     24  C   UNL     1      19.197  11.117  -1.820  1.00  0.00     0.053 C 
ATOM     25  C   UNL     1      21.121  12.940  -2.103  1.00  0.00     0.056 C 
ATOM     26  C   UNL     1      21.698  12.464  -0.734  1.00  0.00     0.014 C 
ATOM     27  C   UNL     1      20.505  14.390  -1.981  1.00  0.00     0.127 C 
ATOM     28  C   UNL     1      20.650  15.348  -3.224  1.00  0.00     0.038 C 
ATOM     29  C   UNL     1      22.125  15.832  -3.408  1.00  0.00     0.015 C 
ATOM     30  C   UNL     1      19.970  14.831  -4.421  1.00  0.00    -0.021 C 
ATOM     31  C   UNL     1      20.480  14.677  -5.661  1.00  0.00    -0.004 C 
ATOM     32  C   UNL     1      19.805  14.055  -6.675  1.00  0.00    -0.000 C 
ATOM     33  C   UNL     1      20.213  14.030  -7.960  1.00  0.00    -0.000 C 
ATOM     34  C   UNL     1      19.625  13.241  -8.913  1.00  0.00    -0.000 C 
ATOM     35  C   UNL     1      20.123  13.055 -10.152  1.00  0.00    -0.000 C 
ATOM     36  C   UNL     1      19.651  12.093 -11.003  1.00  0.00    -0.000 C 
ATOM     37  C   UNL     1      20.363  11.634 -12.054  1.00  0.00    -0.000 C 
ATOM     38  C   UNL     1      20.100  10.529 -12.815  1.00  0.00    -0.000 C 
ATOM     39  C   UNL     1      19.291   9.501 -12.480  1.00  0.00    -0.000 C 
ATOM     40  C   UNL     1      19.263   8.313 -13.154  1.00  0.00    -0.000 C 
ATOM     41  C   UNL     1      18.546   7.253 -12.735  1.00  0.00    -0.000 C 
ATOM     42  C   UNL     1      18.662   6.008 -13.268  1.00  0.00    -0.002 C 
ATOM     43  C   UNL     1      17.670   5.101 -13.240  1.00  0.00     0.005 C 
ENDROOT
BRANCH   1  44
ATOM     44  O   UNL     1      17.112   3.527 -14.840  1.00  0.00    -0.342 OA
BRANCH  44  45
ATOM     45  C   UNL     1      15.696   3.243 -14.794  1.00  0.00     0.281 C 
ATOM     46  C   UNL     1      13.903   0.035 -15.544  1.00  0.00     0.041 C 
ATOM     47  C   UNL     1      14.008   1.525 -15.144  1.00  0.00     0.148 C 
ATOM     48  O   UNL     1      15.399   1.899 -15.236  1.00  0.00    -0.344 OA
ATOM     49  C   UNL     1      13.142   2.461 -16.043  1.00  0.00     0.162 C 
ATOM     50  C   UNL     1      13.423   3.955 -15.706  1.00  0.00     0.116 C 
ATOM     51  C   UNL     1      14.950   4.257 -15.705  1.00  0.00     0.190 C 
BRANCH  49  52
ATOM     52  O   UNL     1      11.753   2.173 -15.881  1.00  0.00    -0.389 OA
ATOM     53  H   UNL     1      11.650   1.298 -15.501  1.00  0.00     0.211 HD
ENDBRANCH  49  52
BRANCH  50  54
ATOM     54  N   UNL     1      12.721   4.839 -16.649  1.00  0.00    -0.323 NA
ATOM     55  H   UNL     1      11.987   4.469 -17.237  1.00  0.00     0.119 HD
ATOM     56  H   UNL     1      12.972   5.816 -16.709  1.00  0.00     0.119 HD
ENDBRANCH  50  54
BRANCH  51  57
ATOM     57  O   UNL     1      15.465   4.187 -17.036  1.00  0.00    -0.386 OA
ATOM     58  H   UNL     1      16.407   4.008 -17.005  1.00  0.00     0.211 HD
ENDBRANCH  51  57
ENDBRANCH  44  45
ENDBRANCH   1  44
BRANCH   8  59
ATOM     59  C   UNL     1      19.444  -0.488 -12.856  1.00  0.00     0.311 C 
ATOM     60  O   UNL     1      20.558  -0.827 -13.317  1.00  0.00    -0.252 OA
BRANCH  59  61
ATOM     61  O   UNL     1      18.484  -1.441 -12.798  1.00  0.00    -0.481 OA
ATOM     62  H   UNL     1      18.192  -1.656 -13.688  1.00  0.00     0.296 HD
ENDBRANCH  59  61
ENDBRANCH   8  59
BRANCH   5  63
ATOM     63  O   UNL     1      17.097  -0.337  -9.125  1.00  0.00    -0.365 OA
ATOM     64  H   UNL     1      16.869  -1.030  -9.748  1.00  0.00     0.214 HD
ENDBRANCH   5  63
BRANCH   7  65
ATOM     65  O   UNL     1      20.070   2.574 -10.787  1.00  0.00    -0.392 OA
ATOM     66  H   UNL     1      19.417   3.056 -11.300  1.00  0.00     0.210 HD
ENDBRANCH   7  65
BRANCH  10  67
ATOM     67  O   UNL     1      15.046   1.608  -8.215  1.00  0.00    -0.393 OA
ATOM     68  H   UNL     1      14.256   2.055  -7.900  1.00  0.00     0.210 HD
ENDBRANCH  10  67
BRANCH  12  69
ATOM     69  O   UNL     1      14.795   5.174 -10.313  1.00  0.00    -0.390 OA
ATOM     70  H   UNL     1      14.214   4.423 -10.165  1.00  0.00     0.211 HD
ENDBRANCH  12  69
BRANCH  13  71
ATOM     71  O   UNL     1      16.100   7.543  -9.736  1.00  0.00    -0.390 OA
ATOM     72  H   UNL     1      16.015   8.413  -9.339  1.00  0.00     0.211 HD
ENDBRANCH  13  71
BRANCH  16  73
ATOM     73  O   UNL     1      20.873   5.943  -7.887  1.00  0.00    -0.393 OA
ATOM     74  H   UNL     1      21.090   6.430  -8.685  1.00  0.00     0.210 HD
ENDBRANCH  16  73
BRANCH  18  75
ATOM     75  O   UNL     1      22.125   7.014  -5.556  1.00  0.00    -0.392 OA
ATOM     76  H   UNL     1      22.977   7.427  -5.393  1.00  0.00     0.210 HD
ENDBRANCH  18  75
BRANCH  27  77
ATOM     77  O   UNL     1      19.137  14.338  -1.575  1.00  0.00    -0.392 OA
ATOM     78  H   UNL     1      18.895  13.429  -1.383  1.00  0.00     0.210 HD
ENDBRANCH  27  77
TORSDOF 15
ENDMDL
MODEL 5
REMARK VINA RESULT:    -1.845      1.980      2.554
REMARK INTER + INTRA:          -3.975
REMARK INTER:                  -4.450
REMARK INTRA:                   0.476
REMARK UNBOUND:                -1.159
REMARK SMILES C[C@@H]1[C@H](O)[C@@H](C)/C=C/C=C/C=C/C=C/C=C/C=C/C=C/[C@H](O[C@@H]2O[C@H](C)[C@@H](O)[C@H](N)[C@@H]2O)C[C@@H]2O[C@](O)(C[C@@H](O)C[C@@H](O)[C@H](O)CC[C@@H](O)C[C@@H](O)CC(=O)O[C@H]1C)C[C@H](O)[C@H]2C(=O)O
REMARK SMILES IDX 21 1 33 2 34 3 35 4 36 5 59 6 60 7 62 8 38 9 39 10 41 11
REMARK SMILES IDX 42 12 44 13 46 14 47 15 48 16 50 17 51 18 53 19 54 20 55 21
REMARK SMILES IDX 56 22 57 23 58 24 2 25 1 26 3 27 5 28 6 29 7 30 8 31 9 32
REMARK SMILES IDX 10 33 11 34 12 35 13 36 14 37 15 38 16 39 17 40 18 41 19 42
REMARK SMILES IDX 20 43 22 44 23 45 26 46 25 47 24 48 27 49 29 50 31 51 28 52
REMARK SMILES IDX 30 54 32 57 63 59 64 60 65 61 37 63 61 65 40 67 43 69 45 71
REMARK SMILES IDX 49 73 52 75 4 77
REMARK H PARENT 28 53 30 55 30 56 32 58 65 62 37 64 61 66 40 68 43 70 45 72
REMARK H PARENT 49 74 52 76 4 78
REMARK Flexibility Score: inf
ROOT
ATOM      1  C   UNL     1      18.524   1.887 -13.070  1.00  0.00     0.147 C 
ATOM      2  C   UNL     1      17.524   2.067 -11.875  1.00  0.00     0.069 C 
ATOM      3  C   UNL     1      17.611   1.144 -10.619  1.00  0.00     0.141 C 
ATOM      4  O   UNL     1      16.546   1.454  -9.680  1.00  0.00    -0.346 OA
ATOM      5  C   UNL     1      16.690   2.534  -8.715  1.00  0.00     0.170 C 
ATOM      6  C   UNL     1      18.091   2.518  -8.019  1.00  0.00     0.098 C 
ATOM      7  C   UNL     1      19.267   2.273  -9.000  1.00  0.00     0.136 C 
ATOM      8  C   UNL     1      19.001   1.024  -9.894  1.00  0.00     0.157 C 
ATOM      9  C   UNL     1      16.285   3.961  -9.233  1.00  0.00     0.097 C 
ATOM     10  C   UNL     1      14.958   4.071 -10.052  1.00  0.00     0.122 C 
ATOM     11  C   UNL     1      14.783   5.454 -10.763  1.00  0.00     0.066 C 
ATOM     12  C   UNL     1      15.525   5.601 -12.130  1.00  0.00     0.145 C 
ATOM     13  C   UNL     1      15.626   7.063 -12.683  1.00  0.00     0.143 C 
ATOM     14  C   UNL     1      16.420   8.102 -11.827  1.00  0.00     0.037 C 
ATOM     15  C   UNL     1      17.899   7.726 -11.525  1.00  0.00     0.034 C 
ATOM     16  C   UNL     1      18.651   8.660 -10.526  1.00  0.00     0.117 C 
ATOM     17  C   UNL     1      19.082  10.059 -11.083  1.00  0.00     0.064 C 
ATOM     18  C   UNL     1      19.528  11.098  -9.997  1.00  0.00     0.128 C 
ATOM     19  C   UNL     1      20.307  12.338 -10.535  1.00  0.00     0.154 C 
ATOM     20  C   UNL     1      19.497  13.286 -11.326  1.00  0.00     0.308 C 
ATOM     21  O   UNL     1      19.133  12.965 -12.482  1.00  0.00    -0.252 OA
ATOM     22  O   UNL     1      19.163  14.502 -10.786  1.00  0.00    -0.462 OA
ATOM     23  C   UNL     1      18.363  15.551 -11.375  1.00  0.00     0.178 C 
ATOM     24  C   UNL     1      17.025  15.572 -10.584  1.00  0.00     0.053 C 
ATOM     25  C   UNL     1      19.184  16.897 -11.414  1.00  0.00     0.056 C 
ATOM     26  C   UNL     1      19.199  17.625 -10.035  1.00  0.00     0.014 C 
ATOM     27  C   UNL     1      18.787  17.894 -12.573  1.00  0.00     0.127 C 
ATOM     28  C   UNL     1      19.475  17.688 -13.976  1.00  0.00     0.038 C 
ATOM     29  C   UNL     1      20.983  18.099 -13.942  1.00  0.00     0.015 C 
ATOM     30  C   UNL     1      19.158  16.385 -14.578  1.00  0.00    -0.021 C 
ATOM     31  C   UNL     1      20.020  15.468 -15.068  1.00  0.00    -0.004 C 
ATOM     32  C   UNL     1      19.630  14.223 -15.480  1.00  0.00    -0.000 C 
ATOM     33  C   UNL     1      20.431  13.349 -16.123  1.00  0.00    -0.000 C 
ATOM     34  C   UNL     1      20.078  12.044 -16.350  1.00  0.00    -0.000 C 
ATOM     35  C   UNL     1      20.923  11.104 -16.821  1.00  0.00    -0.000 C 
ATOM     36  C   UNL     1      20.619   9.770 -16.822  1.00  0.00    -0.000 C 
ATOM     37  C   UNL     1      21.560   8.807 -16.911  1.00  0.00    -0.000 C 
ATOM     38  C   UNL     1      21.401   7.468 -16.686  1.00  0.00    -0.000 C 
ATOM     39  C   UNL     1      20.383   6.885 -16.018  1.00  0.00    -0.000 C 
ATOM     40  C   UNL     1      20.400   5.584 -15.602  1.00  0.00    -0.000 C 
ATOM     41  C   UNL     1      19.435   5.052 -14.828  1.00  0.00    -0.000 C 
ATOM     42  C   UNL     1      19.533   3.832 -14.236  1.00  0.00    -0.002 C 
ATOM     43  C   UNL     1      18.462   3.089 -13.905  1.00  0.00     0.005 C 
ENDROOT
BRANCH   1  44
ATOM     44  O   UNL     1      18.234   0.788 -13.965  1.00  0.00    -0.342 OA
BRANCH  44  45
ATOM     45  C   UNL     1      17.192   0.944 -14.954  1.00  0.00     0.281 C 
ATOM     46  C   UNL     1      15.338   4.044 -15.964  1.00  0.00     0.041 C 
ATOM     47  C   UNL     1      15.683   2.538 -16.005  1.00  0.00     0.148 C 
ATOM     48  O   UNL     1      16.675   2.294 -14.986  1.00  0.00    -0.344 OA
ATOM     49  C   UNL     1      14.442   1.621 -15.774  1.00  0.00     0.162 C 
ATOM     50  C   UNL     1      14.878   0.131 -15.654  1.00  0.00     0.116 C 
ATOM     51  C   UNL     1      16.034  -0.039 -14.625  1.00  0.00     0.190 C 
BRANCH  49  52
ATOM     52  O   UNL     1      13.496   1.772 -16.833  1.00  0.00    -0.389 OA
ATOM     53  H   UNL     1      13.620   1.069 -17.475  1.00  0.00     0.211 HD
ENDBRANCH  49  52
BRANCH  50  54
ATOM     54  N   UNL     1      13.733  -0.716 -15.289  1.00  0.00    -0.323 NA
ATOM     55  H   UNL     1      12.889  -0.295 -14.923  1.00  0.00     0.119 HD
ATOM     56  H   UNL     1      13.788  -1.718 -15.403  1.00  0.00     0.119 HD
ENDBRANCH  50  54
BRANCH  51  57
ATOM     57  O   UNL     1      15.552   0.201 -13.301  1.00  0.00    -0.386 OA
ATOM     58  H   UNL     1      14.737  -0.287 -13.165  1.00  0.00     0.211 HD
ENDBRANCH  51  57
ENDBRANCH  44  45
ENDBRANCH   1  44
BRANCH   8  59
ATOM     59  C   UNL     1      19.153  -0.233  -9.107  1.00  0.00     0.311 C 
ATOM     60  O   UNL     1      20.293  -0.638  -8.782  1.00  0.00    -0.252 OA
BRANCH  59  61
ATOM     61  O   UNL     1      18.097  -0.983  -8.714  1.00  0.00    -0.481 OA
ATOM     62  H   UNL     1      17.771  -1.494  -9.459  1.00  0.00     0.296 HD
ENDBRANCH  59  61
ENDBRANCH   8  59
BRANCH   5  63
ATOM     63  O   UNL     1      15.759   2.196  -7.682  1.00  0.00    -0.365 OA
ATOM     64  H   UNL     1      15.933   2.733  -6.906  1.00  0.00     0.214 HD
ENDBRANCH   5  63
BRANCH   7  65
ATOM     65  O   UNL     1      19.514   3.434  -9.789  1.00  0.00    -0.392 OA
ATOM     66  H   UNL     1      20.457   3.522  -9.944  1.00  0.00     0.210 HD
ENDBRANCH   7  65
BRANCH  10  67
ATOM     67  O   UNL     1      13.838   3.892  -9.183  1.00  0.00    -0.393 OA
ATOM     68  H   UNL     1      13.174   4.559  -9.376  1.00  0.00     0.210 HD
ENDBRANCH  10  67
BRANCH  12  69
ATOM     69  O   UNL     1      14.829   4.816 -13.100  1.00  0.00    -0.390 OA
ATOM     70  H   UNL     1      15.435   4.183 -13.494  1.00  0.00     0.211 HD
ENDBRANCH  12  69
BRANCH  13  71
ATOM     71  O   UNL     1      16.210   7.041 -13.989  1.00  0.00    -0.390 OA
ATOM     72  H   UNL     1      15.837   6.315 -14.494  1.00  0.00     0.211 HD
ENDBRANCH  13  71
BRANCH  16  73
ATOM     73  O   UNL     1      19.811   7.930 -10.115  1.00  0.00    -0.393 OA
ATOM     74  H   UNL     1      19.740   7.021 -10.418  1.00  0.00     0.210 HD
ENDBRANCH  16  73
BRANCH  18  75
ATOM     75  O   UNL     1      20.370  10.503  -9.013  1.00  0.00    -0.392 OA
ATOM     76  H   UNL     1      20.575  11.149  -8.333  1.00  0.00     0.210 HD
ENDBRANCH  18  75
BRANCH  27  77
ATOM     77  O   UNL     1      17.370  17.953 -12.740  1.00  0.00    -0.392 OA
ATOM     78  H   UNL     1      17.058  17.133 -13.129  1.00  0.00     0.210 HD
ENDBRANCH  27  77
TORSDOF 15
ENDMDL
