MODEL 1
REMARK VINA RESULT:    -6.138      0.000      0.000
REMARK INTER + INTRA:          -7.330
REMARK INTER:                  -7.035
REMARK INTRA:                  -0.295
REMARK UNBOUND:                -0.295
REMARK SMILES NS(=O)(=O)Cc1noc2ccccc12
REMARK SMILES IDX 2 1 3 2 4 3 1 4 5 7 6 8 7 9 14 10 8 11 9 12 13 13 10 14
REMARK SMILES IDX 12 15 11 16
REMARK H PARENT 1 5 1 6
REMARK Flexibility Score: inf
ROOT
ATOM      1  S   UNL     1      11.014   6.292 -10.042  1.00  0.00     0.214 S 
ATOM      2  O   UNL     1      11.365   6.658  -8.521  1.00  0.00    -0.212 OA
ATOM      3  O   UNL     1      12.367   6.098 -10.879  1.00  0.00    -0.212 OA
ENDROOT
BRANCH   1   4
ATOM      4  N   UNL     1      10.125   7.634 -10.741  1.00  0.00    -0.228 NA
ATOM      5  H   UNL     1      10.474   8.577 -10.643  1.00  0.00     0.137 HD
ATOM      6  H   UNL     1       9.264   7.464 -11.242  1.00  0.00     0.137 HD
ENDBRANCH   1   4
BRANCH   1   7
ATOM      7  C   UNL     1       9.986   4.778 -10.126  1.00  0.00     0.214 C 
BRANCH   7   8
ATOM      8  C   UNL     1       9.197   4.718 -11.371  1.00  0.00     0.108 A 
ATOM      9  N   UNL     1       9.738   4.708 -12.606  1.00  0.00    -0.083 NA
ATOM     10  C   UNL     1       7.815   4.681 -11.537  1.00  0.00     0.046 A 
ATOM     11  O   UNL     1       8.812   4.688 -13.531  1.00  0.00    -0.356 OA
ATOM     12  C   UNL     1       7.612   4.683 -12.912  1.00  0.00     0.167 A 
ATOM     13  C   UNL     1       6.728   4.650 -10.641  1.00  0.00     0.014 A 
ATOM     14  C   UNL     1       6.320   4.687 -13.460  1.00  0.00     0.051 A 
ATOM     15  C   UNL     1       5.420   4.649 -11.178  1.00  0.00     0.001 A 
ATOM     16  C   UNL     1       5.218   4.681 -12.578  1.00  0.00     0.004 A 
ENDBRANCH   7   8
ENDBRANCH   1   7
TORSDOF 3
ENDMDL
MODEL 2
REMARK VINA RESULT:    -5.950      0.966      1.143
REMARK INTER + INTRA:          -7.115
REMARK INTER:                  -6.731
REMARK INTRA:                  -0.384
REMARK UNBOUND:                -0.295
REMARK SMILES NS(=O)(=O)Cc1noc2ccccc12
REMARK SMILES IDX 2 1 3 2 4 3 1 4 5 7 6 8 7 9 14 10 8 11 9 12 13 13 10 14
REMARK SMILES IDX 12 15 11 16
REMARK H PARENT 1 5 1 6
REMARK Flexibility Score: inf
ROOT
ATOM      1  S   UNL     1      11.058   6.323 -10.053  1.00  0.00     0.214 S 
ATOM      2  O   UNL     1      10.207   7.649 -10.346  1.00  0.00    -0.212 OA
ATOM      3  O   UNL     1      11.801   6.456  -8.638  1.00  0.00    -0.212 OA
ENDROOT
BRANCH   1   4
ATOM      4  N   UNL     1      12.281   6.164 -11.300  1.00  0.00    -0.228 NA
ATOM      5  H   UNL     1      13.033   5.498 -11.190  1.00  0.00     0.137 HD
ATOM      6  H   UNL     1      12.235   6.739 -12.130  1.00  0.00     0.137 HD
ENDBRANCH   1   4
BRANCH   1   7
ATOM      7  C   UNL     1       9.980   4.841 -10.072  1.00  0.00     0.214 C 
BRANCH   7   8
ATOM      8  C   UNL     1       9.187   4.755 -11.313  1.00  0.00     0.108 A 
ATOM      9  N   UNL     1       9.725   4.745 -12.550  1.00  0.00    -0.083 NA
ATOM     10  C   UNL     1       7.806   4.689 -11.473  1.00  0.00     0.046 A 
ATOM     11  O   UNL     1       8.796   4.698 -13.471  1.00  0.00    -0.356 OA
ATOM     12  C   UNL     1       7.598   4.675 -12.847  1.00  0.00     0.167 A 
ATOM     13  C   UNL     1       6.723   4.645 -10.573  1.00  0.00     0.014 A 
ATOM     14  C   UNL     1       6.304   4.648 -13.391  1.00  0.00     0.051 A 
ATOM     15  C   UNL     1       5.414   4.613 -11.105  1.00  0.00     0.001 A 
ATOM     16  C   UNL     1       5.206   4.628 -12.505  1.00  0.00     0.004 A 
ENDBRANCH   7   8
ENDBRANCH   1   7
TORSDOF 3
ENDMDL
MODEL 3
REMARK VINA RESULT:    -5.936      1.469      2.062
REMARK INTER + INTRA:          -7.098
REMARK INTER:                  -6.729
REMARK INTRA:                  -0.369
REMARK UNBOUND:                -0.295
REMARK SMILES NS(=O)(=O)Cc1noc2ccccc12
REMARK SMILES IDX 2 1 3 2 4 3 1 4 5 7 6 8 7 9 14 10 8 11 9 12 13 13 10 14
REMARK SMILES IDX 12 15 11 16
REMARK H PARENT 1 5 1 6
REMARK Flexibility Score: inf
ROOT
ATOM      1  S   UNL     1      11.299   6.217 -10.070  1.00  0.00     0.214 S 
ATOM      2  O   UNL     1      11.209   5.930  -8.495  1.00  0.00    -0.212 OA
ATOM      3  O   UNL     1      12.816   6.537 -10.477  1.00  0.00    -0.212 OA
ENDROOT
BRANCH   1   4
ATOM      4  N   UNL     1      10.325   7.631 -10.429  1.00  0.00    -0.228 NA
ATOM      5  H   UNL     1       9.362   7.671 -10.129  1.00  0.00     0.137 HD
ATOM      6  H   UNL     1      10.728   8.407 -10.937  1.00  0.00     0.137 HD
ENDBRANCH   1   4
BRANCH   1   7
ATOM      7  C   UNL     1      10.667   4.789 -11.029  1.00  0.00     0.214 C 
BRANCH   7   8
ATOM      8  C   UNL     1       9.201   4.834 -11.179  1.00  0.00     0.108 A 
ATOM      9  N   UNL     1       8.343   4.983 -10.150  1.00  0.00    -0.083 NA
ATOM     10  C   UNL     1       8.430   4.722 -12.334  1.00  0.00     0.046 A 
ATOM     11  O   UNL     1       7.099   4.953 -10.559  1.00  0.00    -0.356 OA
ATOM     12  C   UNL     1       7.111   4.781 -11.899  1.00  0.00     0.167 A 
ATOM     13  C   UNL     1       8.740   4.572 -13.699  1.00  0.00     0.014 A 
ATOM     14  C   UNL     1       6.040   4.663 -12.797  1.00  0.00     0.051 A 
ATOM     15  C   UNL     1       7.671   4.456 -14.617  1.00  0.00     0.001 A 
ATOM     16  C   UNL     1       6.330   4.487 -14.167  1.00  0.00     0.004 A 
ENDBRANCH   7   8
ENDBRANCH   1   7
TORSDOF 3
ENDMDL
MODEL 4
REMARK VINA RESULT:    -5.922      1.565      2.058
REMARK INTER + INTRA:          -7.083
REMARK INTER:                  -6.749
REMARK INTRA:                  -0.333
REMARK UNBOUND:                -0.295
REMARK SMILES NS(=O)(=O)Cc1noc2ccccc12
REMARK SMILES IDX 2 1 3 2 4 3 1 4 5 7 6 8 7 9 14 10 8 11 9 12 13 13 10 14
REMARK SMILES IDX 12 15 11 16
REMARK H PARENT 1 5 1 6
REMARK Flexibility Score: inf
ROOT
ATOM      1  S   UNL     1      11.683   5.702 -10.897  1.00  0.00     0.214 S 
ATOM      2  O   UNL     1      12.109   4.813  -9.632  1.00  0.00    -0.212 OA
ATOM      3  O   UNL     1      12.988   6.122 -11.727  1.00  0.00    -0.212 OA
ENDROOT
BRANCH   1   4
ATOM      4  N   UNL     1      10.913   7.165 -10.309  1.00  0.00    -0.228 NA
ATOM      5  H   UNL     1       9.989   7.121  -9.904  1.00  0.00     0.137 HD
ATOM      6  H   UNL     1      11.394   8.051 -10.377  1.00  0.00     0.137 HD
ENDBRANCH   1   4
BRANCH   1   7
ATOM      7  C   UNL     1      10.510   4.789 -11.968  1.00  0.00     0.214 C 
BRANCH   7   8
ATOM      8  C   UNL     1       9.144   4.788 -11.410  1.00  0.00     0.108 A 
ATOM      9  N   UNL     1       8.870   4.843 -10.091  1.00  0.00    -0.083 NA
ATOM     10  C   UNL     1       7.922   4.716 -12.073  1.00  0.00     0.046 A 
ATOM     11  O   UNL     1       7.581   4.791  -9.871  1.00  0.00    -0.356 OA
ATOM     12  C   UNL     1       6.962   4.700 -11.068  1.00  0.00     0.167 A 
ATOM     13  C   UNL     1       7.554   4.661 -13.431  1.00  0.00     0.014 A 
ATOM     14  C   UNL     1       5.595   4.596 -11.365  1.00  0.00     0.051 A 
ATOM     15  C   UNL     1       6.180   4.560 -13.747  1.00  0.00     0.001 A 
ATOM     16  C   UNL     1       5.208   4.513 -12.720  1.00  0.00     0.004 A 
ENDBRANCH   7   8
ENDBRANCH   1   7
TORSDOF 3
ENDMDL
MODEL 5
REMARK VINA RESULT:    -5.892      1.793      2.430
REMARK INTER + INTRA:          -7.048
REMARK INTER:                  -6.760
REMARK INTRA:                  -0.288
REMARK UNBOUND:                -0.295
REMARK SMILES NS(=O)(=O)Cc1noc2ccccc12
REMARK SMILES IDX 2 1 3 2 4 3 1 4 5 7 6 8 7 9 14 10 8 11 9 12 13 13 10 14
REMARK SMILES IDX 12 15 11 16
REMARK H PARENT 1 5 1 6
REMARK Flexibility Score: inf
ROOT
ATOM      1  S   UNL     1      11.723   5.433 -10.517  1.00  0.00     0.214 S 
ATOM      2  O   UNL     1      13.219   5.469 -11.092  1.00  0.00    -0.212 OA
ATOM      3  O   UNL     1      11.378   6.833  -9.816  1.00  0.00    -0.212 OA
ENDROOT
BRANCH   1   4
ATOM      4  N   UNL     1      11.629   4.174  -9.300  1.00  0.00    -0.228 NA
ATOM      5  H   UNL     1      12.203   4.229  -8.471  1.00  0.00     0.137 HD
ATOM      6  H   UNL     1      11.000   3.393  -9.428  1.00  0.00     0.137 HD
ENDBRANCH   1   4
BRANCH   1   7
ATOM      7  C   UNL     1      10.521   5.074 -11.853  1.00  0.00     0.214 C 
BRANCH   7   8
ATOM      8  C   UNL     1       9.151   4.914 -11.331  1.00  0.00     0.108 A 
ATOM      9  N   UNL     1       8.854   4.793 -10.021  1.00  0.00    -0.083 NA
ATOM     10  C   UNL     1       7.947   4.838 -12.026  1.00  0.00     0.046 A 
ATOM     11  O   UNL     1       7.568   4.627  -9.839  1.00  0.00    -0.356 OA
ATOM     12  C   UNL     1       6.976   4.637 -11.052  1.00  0.00     0.167 A 
ATOM     13  C   UNL     1       7.604   4.919 -13.390  1.00  0.00     0.014 A 
ATOM     14  C   UNL     1       5.623   4.476 -11.391  1.00  0.00     0.051 A 
ATOM     15  C   UNL     1       6.245   4.762 -13.747  1.00  0.00     0.001 A 
ATOM     16  C   UNL     1       5.264   4.528 -12.754  1.00  0.00     0.004 A 
ENDBRANCH   7   8
ENDBRANCH   1   7
TORSDOF 3
ENDMDL
MODEL 6
REMARK VINA RESULT:    -5.816      2.316      3.426
REMARK INTER + INTRA:          -6.961
REMARK INTER:                  -6.579
REMARK INTRA:                  -0.382
REMARK UNBOUND:                -0.295
REMARK SMILES NS(=O)(=O)Cc1noc2ccccc12
REMARK SMILES IDX 2 1 3 2 4 3 1 4 5 7 6 8 7 9 14 10 8 11 9 12 13 13 10 14
REMARK SMILES IDX 12 15 11 16
REMARK H PARENT 1 5 1 6
REMARK Flexibility Score: inf
ROOT
ATOM      1  S   UNL     1      10.820   6.309 -14.608  1.00  0.00     0.214 S 
ATOM      2  O   UNL     1      11.472   6.252 -16.073  1.00  0.00    -0.212 OA
ATOM      3  O   UNL     1       9.885   7.604 -14.480  1.00  0.00    -0.212 OA
ENDROOT
BRANCH   1   4
ATOM      4  N   UNL     1      12.115   6.450 -13.434  1.00  0.00    -0.228 NA
ATOM      5  H   UNL     1      12.672   7.292 -13.394  1.00  0.00     0.137 HD
ATOM      6  H   UNL     1      12.305   5.689 -12.796  1.00  0.00     0.137 HD
ENDBRANCH   1   4
BRANCH   1   7
ATOM      7  C   UNL     1       9.857   4.788 -14.267  1.00  0.00     0.214 C 
BRANCH   7   8
ATOM      8  C   UNL     1       9.150   4.865 -12.974  1.00  0.00     0.108 A 
ATOM      9  N   UNL     1       9.767   5.039 -11.788  1.00  0.00    -0.083 NA
ATOM     10  C   UNL     1       7.787   4.763 -12.709  1.00  0.00     0.046 A 
ATOM     11  O   UNL     1       8.907   5.035 -10.800  1.00  0.00    -0.356 OA
ATOM     12  C   UNL     1       7.677   4.855 -11.326  1.00  0.00     0.167 A 
ATOM     13  C   UNL     1       6.647   4.599 -13.520  1.00  0.00     0.014 A 
ATOM     14  C   UNL     1       6.433   4.755 -10.684  1.00  0.00     0.051 A 
ATOM     15  C   UNL     1       5.386   4.502 -12.888  1.00  0.00     0.001 A 
ATOM     16  C   UNL     1       5.282   4.565 -11.479  1.00  0.00     0.004 A 
ENDBRANCH   7   8
ENDBRANCH   1   7
TORSDOF 3
ENDMDL
MODEL 7
REMARK VINA RESULT:    -5.646      6.022      7.544
REMARK INTER + INTRA:          -6.766
REMARK INTER:                  -6.534
REMARK INTRA:                  -0.232
REMARK UNBOUND:                -0.295
REMARK SMILES NS(=O)(=O)Cc1noc2ccccc12
REMARK SMILES IDX 2 1 3 2 4 3 1 4 5 7 6 8 7 9 14 10 8 11 9 12 13 13 10 14
REMARK SMILES IDX 12 15 11 16
REMARK H PARENT 1 5 1 6
REMARK Flexibility Score: inf
ROOT
ATOM      1  S   UNL     1      11.736   4.185  -3.240  1.00  0.00     0.214 S 
ATOM      2  O   UNL     1      10.848   3.222  -4.164  1.00  0.00    -0.212 OA
ATOM      3  O   UNL     1      13.111   3.454  -2.859  1.00  0.00    -0.212 OA
ENDROOT
BRANCH   1   4
ATOM      4  N   UNL     1      10.853   4.496  -1.757  1.00  0.00    -0.228 NA
ATOM      5  H   UNL     1       9.843   4.474  -1.756  1.00  0.00     0.137 HD
ATOM      6  H   UNL     1      11.353   4.697  -0.902  1.00  0.00     0.137 HD
ENDBRANCH   1   4
BRANCH   1   7
ATOM      7  C   UNL     1      12.070   5.774  -4.089  1.00  0.00     0.214 C 
BRANCH   7   8
ATOM      8  C   UNL     1      12.820   5.578  -5.344  1.00  0.00     0.108 A 
ATOM      9  N   UNL     1      14.161   5.674  -5.442  1.00  0.00    -0.083 NA
ATOM     10  C   UNL     1      12.341   5.291  -6.620  1.00  0.00     0.046 A 
ATOM     11  O   UNL     1      14.562   5.491  -6.675  1.00  0.00    -0.356 OA
ATOM     12  C   UNL     1      13.468   5.264  -7.434  1.00  0.00     0.167 A 
ATOM     13  C   UNL     1      11.057   5.058  -7.148  1.00  0.00     0.014 A 
ATOM     14  C   UNL     1      13.366   5.036  -8.815  1.00  0.00     0.051 A 
ATOM     15  C   UNL     1      10.938   4.822  -8.536  1.00  0.00     0.001 A 
ATOM     16  C   UNL     1      12.084   4.825  -9.366  1.00  0.00     0.004 A 
ENDBRANCH   7   8
ENDBRANCH   1   7
TORSDOF 3
ENDMDL
MODEL 8
REMARK VINA RESULT:    -5.542      1.621      1.765
REMARK INTER + INTRA:          -6.647
REMARK INTER:                  -6.323
REMARK INTRA:                  -0.325
REMARK UNBOUND:                -0.295
REMARK SMILES NS(=O)(=O)Cc1noc2ccccc12
REMARK SMILES IDX 2 1 3 2 4 3 1 4 5 7 6 8 7 9 14 10 8 11 9 12 13 13 10 14
REMARK SMILES IDX 12 15 11 16
REMARK H PARENT 1 5 1 6
REMARK Flexibility Score: inf
ROOT
ATOM      1  S   UNL     1      12.001   5.361 -11.914  1.00  0.00     0.214 S 
ATOM      2  O   UNL     1      13.119   5.605 -10.790  1.00  0.00    -0.212 OA
ATOM      3  O   UNL     1      12.006   3.821 -12.358  1.00  0.00    -0.212 OA
ENDROOT
BRANCH   1   4
ATOM      4  N   UNL     1      12.405   6.336 -13.315  1.00  0.00    -0.228 NA
ATOM      5  H   UNL     1      12.439   7.343 -13.238  1.00  0.00     0.137 HD
ATOM      6  H   UNL     1      12.605   5.891 -14.200  1.00  0.00     0.137 HD
ENDBRANCH   1   4
BRANCH   1   7
ATOM      7  C   UNL     1      10.345   5.845 -11.299  1.00  0.00     0.214 C 
BRANCH   7   8
ATOM      8  C   UNL     1       9.276   5.464 -12.241  1.00  0.00     0.108 A 
ATOM      9  N   UNL     1       9.431   5.430 -13.581  1.00  0.00    -0.083 NA
ATOM     10  C   UNL     1       7.958   5.100 -11.978  1.00  0.00     0.046 A 
ATOM     11  O   UNL     1       8.316   5.094 -14.179  1.00  0.00    -0.356 OA
ATOM     12  C   UNL     1       7.380   4.894 -13.226  1.00  0.00     0.167 A 
ATOM     13  C   UNL     1       7.213   4.932 -10.795  1.00  0.00     0.014 A 
ATOM     14  C   UNL     1       6.028   4.544 -13.356  1.00  0.00     0.051 A 
ATOM     15  C   UNL     1       5.850   4.575 -10.910  1.00  0.00     0.001 A 
ATOM     16  C   UNL     1       5.258   4.396 -12.183  1.00  0.00     0.004 A 
ENDBRANCH   7   8
ENDBRANCH   1   7
TORSDOF 3
ENDMDL
MODEL 9
REMARK VINA RESULT:    -5.529      5.230      7.676
REMARK INTER + INTRA:          -6.632
REMARK INTER:                  -6.296
REMARK INTRA:                  -0.336
REMARK UNBOUND:                -0.295
REMARK SMILES NS(=O)(=O)Cc1noc2ccccc12
REMARK SMILES IDX 2 1 3 2 4 3 1 4 5 7 6 8 7 9 14 10 8 11 9 12 13 13 10 14
REMARK SMILES IDX 12 15 11 16
REMARK H PARENT 1 5 1 6
REMARK Flexibility Score: inf
ROOT
ATOM      1  S   UNL     1      12.316   5.781  -9.208  1.00  0.00     0.214 S 
ATOM      2  O   UNL     1      12.994   4.358  -9.498  1.00  0.00    -0.212 OA
ATOM      3  O   UNL     1      11.325   6.164 -10.409  1.00  0.00    -0.212 OA
ENDROOT
BRANCH   1   4
ATOM      4  N   UNL     1      13.583   6.992  -9.136  1.00  0.00    -0.228 NA
ATOM      5  H   UNL     1      13.732   7.517  -8.285  1.00  0.00     0.137 HD
ATOM      6  H   UNL     1      14.164   7.165  -9.944  1.00  0.00     0.137 HD
ENDBRANCH   1   4
BRANCH   1   7
ATOM      7  C   UNL     1      11.410   5.757  -7.615  1.00  0.00     0.214 C 
BRANCH   7   8
ATOM      8  C   UNL     1      12.310   5.495  -6.476  1.00  0.00     0.108 A 
ATOM      9  N   UNL     1      13.622   5.809  -6.466  1.00  0.00    -0.083 NA
ATOM     10  C   UNL     1      12.030   4.892  -5.253  1.00  0.00     0.046 A 
ATOM     11  O   UNL     1      14.191   5.434  -5.347  1.00  0.00    -0.356 OA
ATOM     12  C   UNL     1      13.245   4.854  -4.578  1.00  0.00     0.167 A 
ATOM     13  C   UNL     1      10.857   4.376  -4.669  1.00  0.00     0.014 A 
ATOM     14  C   UNL     1      13.356   4.273  -3.306  1.00  0.00     0.051 A 
ATOM     15  C   UNL     1      10.952   3.792  -3.385  1.00  0.00     0.001 A 
ATOM     16  C   UNL     1      12.196   3.728  -2.714  1.00  0.00     0.004 A 
ENDBRANCH   7   8
ENDBRANCH   1   7
TORSDOF 3
ENDMDL
MODEL 10
REMARK VINA RESULT:    -5.508      6.342      8.016
REMARK INTER + INTRA:          -6.608
REMARK INTER:                  -6.381
REMARK INTRA:                  -0.226
REMARK UNBOUND:                -0.295
REMARK SMILES NS(=O)(=O)Cc1noc2ccccc12
REMARK SMILES IDX 2 1 3 2 4 3 1 4 5 7 6 8 7 9 14 10 8 11 9 12 13 13 10 14
REMARK SMILES IDX 12 15 11 16
REMARK H PARENT 1 5 1 6
REMARK Flexibility Score: inf
ROOT
ATOM      1  S   UNL     1      11.684   4.176  -3.239  1.00  0.00     0.214 S 
ATOM      2  O   UNL     1      10.799   3.237  -4.191  1.00  0.00    -0.212 OA
ATOM      3  O   UNL     1      13.054   3.432  -2.866  1.00  0.00    -0.212 OA
ENDROOT
BRANCH   1   4
ATOM      4  N   UNL     1      10.791   4.455  -1.755  1.00  0.00    -0.228 NA
ATOM      5  H   UNL     1      11.287   4.614  -0.889  1.00  0.00     0.137 HD
ATOM      6  H   UNL     1       9.781   4.458  -1.766  1.00  0.00     0.137 HD
ENDBRANCH   1   4
BRANCH   1   7
ATOM      7  C   UNL     1      12.029   5.783  -4.049  1.00  0.00     0.214 C 
BRANCH   7   8
ATOM      8  C   UNL     1      12.070   5.659  -5.518  1.00  0.00     0.108 A 
ATOM      9  N   UNL     1      11.000   5.841  -6.319  1.00  0.00    -0.083 NA
ATOM     10  C   UNL     1      13.141   5.331  -6.345  1.00  0.00     0.046 A 
ATOM     11  O   UNL     1      11.307   5.636  -7.575  1.00  0.00    -0.356 OA
ATOM     12  C   UNL     1      12.615   5.307  -7.631  1.00  0.00     0.167 A 
ATOM     13  C   UNL     1      14.502   5.052  -6.110  1.00  0.00     0.014 A 
ATOM     14  C   UNL     1      13.409   4.974  -8.739  1.00  0.00     0.051 A 
ATOM     15  C   UNL     1      15.316   4.719  -7.216  1.00  0.00     0.001 A 
ATOM     16  C   UNL     1      14.769   4.666  -8.521  1.00  0.00     0.004 A 
ENDBRANCH   7   8
ENDBRANCH   1   7
TORSDOF 3
ENDMDL
MODEL 11
REMARK VINA RESULT:    -5.435      2.854      3.227
REMARK INTER + INTRA:          -6.524
REMARK INTER:                  -6.347
REMARK INTRA:                  -0.178
REMARK UNBOUND:                -0.295
REMARK SMILES NS(=O)(=O)Cc1noc2ccccc12
REMARK SMILES IDX 2 1 3 2 4 3 1 4 5 7 6 8 7 9 14 10 8 11 9 12 13 13 10 14
REMARK SMILES IDX 12 15 11 16
REMARK H PARENT 1 5 1 6
REMARK Flexibility Score: inf
ROOT
ATOM      1  S   UNL     1      10.982   6.170 -14.416  1.00  0.00     0.214 S 
ATOM      2  O   UNL     1      11.237   5.618 -15.900  1.00  0.00    -0.212 OA
ATOM      3  O   UNL     1       9.991   7.429 -14.469  1.00  0.00    -0.212 OA
ENDROOT
BRANCH   1   4
ATOM      4  N   UNL     1      12.515   6.707 -13.756  1.00  0.00    -0.228 NA
ATOM      5  H   UNL     1      12.538   7.225 -12.889  1.00  0.00     0.137 HD
ATOM      6  H   UNL     1      13.376   6.498 -14.242  1.00  0.00     0.137 HD
ENDBRANCH   1   4
BRANCH   1   7
ATOM      7  C   UNL     1      10.289   4.855 -13.344  1.00  0.00     0.214 C 
BRANCH   7   8
ATOM      8  C   UNL     1       8.846   4.658 -13.581  1.00  0.00     0.108 A 
ATOM      9  N   UNL     1       8.306   4.440 -14.797  1.00  0.00    -0.083 NA
ATOM     10  C   UNL     1       7.795   4.671 -12.668  1.00  0.00     0.046 A 
ATOM     11  O   UNL     1       7.002   4.335 -14.725  1.00  0.00    -0.356 OA
ATOM     12  C   UNL     1       6.648   4.484 -13.431  1.00  0.00     0.167 A 
ATOM     13  C   UNL     1       7.721   4.827 -11.270  1.00  0.00     0.014 A 
ATOM     14  C   UNL     1       5.373   4.476 -12.844  1.00  0.00     0.051 A 
ATOM     15  C   UNL     1       6.444   4.817 -10.664  1.00  0.00     0.001 A 
ATOM     16  C   UNL     1       5.277   4.657 -11.448  1.00  0.00     0.004 A 
ENDBRANCH   7   8
ENDBRANCH   1   7
TORSDOF 3
ENDMDL
MODEL 12
REMARK VINA RESULT:    -5.362      3.220      3.696
REMARK INTER + INTRA:          -6.441
REMARK INTER:                  -6.059
REMARK INTRA:                  -0.382
REMARK UNBOUND:                -0.295
REMARK SMILES NS(=O)(=O)Cc1noc2ccccc12
REMARK SMILES IDX 2 1 3 2 4 3 1 4 5 7 6 8 7 9 14 10 8 11 9 12 13 13 10 14
REMARK SMILES IDX 12 15 11 16
REMARK H PARENT 1 5 1 6
REMARK Flexibility Score: inf
ROOT
ATOM      1  S   UNL     1      10.953   3.919 -14.778  1.00  0.00     0.214 S 
ATOM      2  O   UNL     1      12.532   4.077 -14.549  1.00  0.00    -0.212 OA
ATOM      3  O   UNL     1      10.509   2.409 -14.470  1.00  0.00    -0.212 OA
ENDROOT
BRANCH   1   4
ATOM      4  N   UNL     1      10.603   4.259 -16.463  1.00  0.00    -0.228 NA
ATOM      5  H   UNL     1      11.357   4.448 -17.107  1.00  0.00     0.137 HD
ATOM      6  H   UNL     1       9.647   4.266 -16.789  1.00  0.00     0.137 HD
ENDBRANCH   1   4
BRANCH   1   7
ATOM      7  C   UNL     1      10.021   5.088 -13.719  1.00  0.00     0.214 C 
BRANCH   7   8
ATOM      8  C   UNL     1       8.568   4.838 -13.771  1.00  0.00     0.108 A 
ATOM      9  N   UNL     1       7.878   4.646 -14.913  1.00  0.00    -0.083 NA
ATOM     10  C   UNL     1       7.649   4.769 -12.727  1.00  0.00     0.046 A 
ATOM     11  O   UNL     1       6.601   4.482 -14.675  1.00  0.00    -0.356 OA
ATOM     12  C   UNL     1       6.418   4.564 -13.339  1.00  0.00     0.167 A 
ATOM     13  C   UNL     1       7.758   4.867 -11.326  1.00  0.00     0.014 A 
ATOM     14  C   UNL     1       5.235   4.478 -12.590  1.00  0.00     0.051 A 
ATOM     15  C   UNL     1       6.575   4.777 -10.557  1.00  0.00     0.001 A 
ATOM     16  C   UNL     1       5.320   4.598 -11.186  1.00  0.00     0.004 A 
ENDBRANCH   7   8
ENDBRANCH   1   7
TORSDOF 3
ENDMDL
MODEL 13
REMARK VINA RESULT:    -5.361      2.285      3.425
REMARK INTER + INTRA:          -6.440
REMARK INTER:                  -6.216
REMARK INTRA:                  -0.223
REMARK UNBOUND:                -0.295
REMARK SMILES NS(=O)(=O)Cc1noc2ccccc12
REMARK SMILES IDX 2 1 3 2 4 3 1 4 5 7 6 8 7 9 14 10 8 11 9 12 13 13 10 14
REMARK SMILES IDX 12 15 11 16
REMARK H PARENT 1 5 1 6
REMARK Flexibility Score: inf
ROOT
ATOM      1  S   UNL     1      11.108   3.931 -13.922  1.00  0.00     0.214 S 
ATOM      2  O   UNL     1      12.077   3.507 -12.717  1.00  0.00    -0.212 OA
ATOM      3  O   UNL     1      10.082   2.741 -14.237  1.00  0.00    -0.212 OA
ENDROOT
BRANCH   1   4
ATOM      4  N   UNL     1      12.090   4.200 -15.351  1.00  0.00    -0.228 NA
ATOM      5  H   UNL     1      12.152   5.123 -15.755  1.00  0.00     0.137 HD
ATOM      6  H   UNL     1      12.594   3.431 -15.770  1.00  0.00     0.137 HD
ENDBRANCH   1   4
BRANCH   1   7
ATOM      7  C   UNL     1      10.200   5.469 -13.516  1.00  0.00     0.214 C 
BRANCH   7   8
ATOM      8  C   UNL     1       9.260   5.272 -12.396  1.00  0.00     0.108 A 
ATOM      9  N   UNL     1       9.621   5.293 -11.097  1.00  0.00    -0.083 NA
ATOM     10  C   UNL     1       7.891   5.018 -12.429  1.00  0.00     0.046 A 
ATOM     11  O   UNL     1       8.599   5.055 -10.315  1.00  0.00    -0.356 OA
ATOM     12  C   UNL     1       7.515   4.867 -11.100  1.00  0.00     0.167 A 
ATOM     13  C   UNL     1       6.948   4.901 -13.469  1.00  0.00     0.014 A 
ATOM     14  C   UNL     1       6.193   4.563 -10.744  1.00  0.00     0.051 A 
ATOM     15  C   UNL     1       5.611   4.599 -13.126  1.00  0.00     0.001 A 
ATOM     16  C   UNL     1       5.239   4.417 -11.773  1.00  0.00     0.004 A 
ENDBRANCH   7   8
ENDBRANCH   1   7
TORSDOF 3
ENDMDL
MODEL 14
REMARK VINA RESULT:    -5.328      5.512      8.080
REMARK INTER + INTRA:          -6.401
REMARK INTER:                  -6.052
REMARK INTRA:                  -0.349
REMARK UNBOUND:                -0.295
REMARK SMILES NS(=O)(=O)Cc1noc2ccccc12
REMARK SMILES IDX 2 1 3 2 4 3 1 4 5 7 6 8 7 9 14 10 8 11 9 12 13 13 10 14
REMARK SMILES IDX 12 15 11 16
REMARK H PARENT 1 5 1 6
REMARK Flexibility Score: inf
ROOT
ATOM      1  S   UNL     1      11.050   5.222  -8.677  1.00  0.00     0.214 S 
ATOM      2  O   UNL     1       9.777   4.649  -9.465  1.00  0.00    -0.212 OA
ATOM      3  O   UNL     1      11.374   6.710  -9.179  1.00  0.00    -0.212 OA
ENDROOT
BRANCH   1   4
ATOM      4  N   UNL     1      12.431   4.207  -9.048  1.00  0.00    -0.228 NA
ATOM      5  H   UNL     1      12.923   4.322  -9.923  1.00  0.00     0.137 HD
ATOM      6  H   UNL     1      12.737   3.507  -8.386  1.00  0.00     0.137 HD
ENDBRANCH   1   4
BRANCH   1   7
ATOM      7  C   UNL     1      10.756   5.207  -6.869  1.00  0.00     0.214 C 
BRANCH   7   8
ATOM      8  C   UNL     1      12.020   5.207  -6.107  1.00  0.00     0.108 A 
ATOM      9  N   UNL     1      13.179   5.713  -6.574  1.00  0.00    -0.083 NA
ATOM     10  C   UNL     1      12.282   4.704  -4.836  1.00  0.00     0.046 A 
ATOM     11  O   UNL     1      14.150   5.552  -5.710  1.00  0.00    -0.356 OA
ATOM     12  C   UNL     1      13.639   4.922  -4.630  1.00  0.00     0.167 A 
ATOM     13  C   UNL     1      11.487   4.084  -3.852  1.00  0.00     0.014 A 
ATOM     14  C   UNL     1      14.275   4.506  -3.451  1.00  0.00     0.051 A 
ATOM     15  C   UNL     1      12.113   3.662  -2.656  1.00  0.00     0.001 A 
ATOM     16  C   UNL     1      13.501   3.859  -2.464  1.00  0.00     0.004 A 
ENDBRANCH   7   8
ENDBRANCH   1   7
TORSDOF 3
ENDMDL
MODEL 15
REMARK VINA RESULT:    -5.309      5.794      7.960
REMARK INTER + INTRA:          -6.380
REMARK INTER:                  -6.052
REMARK INTRA:                  -0.328
REMARK UNBOUND:                -0.295
REMARK SMILES NS(=O)(=O)Cc1noc2ccccc12
REMARK SMILES IDX 2 1 3 2 4 3 1 4 5 7 6 8 7 9 14 10 8 11 9 12 13 13 10 14
REMARK SMILES IDX 12 15 11 16
REMARK H PARENT 1 5 1 6
REMARK Flexibility Score: inf
ROOT
ATOM      1  S   UNL     1      11.990   5.153  -8.874  1.00  0.00     0.214 S 
ATOM      2  O   UNL     1      11.724   6.139 -10.110  1.00  0.00    -0.212 OA
ATOM      3  O   UNL     1      13.180   4.141  -9.234  1.00  0.00    -0.212 OA
ENDROOT
BRANCH   1   4
ATOM      4  N   UNL     1      10.536   4.211  -8.596  1.00  0.00    -0.228 NA
ATOM      5  H   UNL     1       9.631   4.660  -8.622  1.00  0.00     0.137 HD
ATOM      6  H   UNL     1      10.603   3.220  -8.411  1.00  0.00     0.137 HD
ENDBRANCH   1   4
BRANCH   1   7
ATOM      7  C   UNL     1      12.394   6.102  -7.360  1.00  0.00     0.214 C 
BRANCH   7   8
ATOM      8  C   UNL     1      11.830   5.473  -6.151  1.00  0.00     0.108 A 
ATOM      9  N   UNL     1      10.508   5.330  -5.923  1.00  0.00    -0.083 NA
ATOM     10  C   UNL     1      12.489   4.942  -5.045  1.00  0.00     0.046 A 
ATOM     11  O   UNL     1      10.284   4.773  -4.760  1.00  0.00    -0.356 OA
ATOM     12  C   UNL     1      11.481   4.530  -4.182  1.00  0.00     0.167 A 
ATOM     13  C   UNL     1      13.847   4.781  -4.706  1.00  0.00     0.014 A 
ATOM     14  C   UNL     1      11.774   3.968  -2.930  1.00  0.00     0.051 A 
ATOM     15  C   UNL     1      14.159   4.213  -3.450  1.00  0.00     0.001 A 
ATOM     16  C   UNL     1      13.129   3.822  -2.562  1.00  0.00     0.004 A 
ENDBRANCH   7   8
ENDBRANCH   1   7
TORSDOF 3
ENDMDL
MODEL 16
REMARK VINA RESULT:    -5.214      4.154      6.781
REMARK INTER + INTRA:          -6.271
REMARK INTER:                  -5.868
REMARK INTRA:                  -0.403
REMARK UNBOUND:                -0.295
REMARK SMILES NS(=O)(=O)Cc1noc2ccccc12
REMARK SMILES IDX 2 1 3 2 4 3 1 4 5 7 6 8 7 9 14 10 8 11 9 12 13 13 10 14
REMARK SMILES IDX 12 15 11 16
REMARK H PARENT 1 5 1 6
REMARK Flexibility Score: inf
ROOT
ATOM      1  S   UNL     1      10.949   6.135 -10.424  1.00  0.00     0.214 S 
ATOM      2  O   UNL     1      11.857   5.679 -11.664  1.00  0.00    -0.212 OA
ATOM      3  O   UNL     1       9.434   6.341 -10.907  1.00  0.00    -0.212 OA
ENDROOT
BRANCH   1   4
ATOM      4  N   UNL     1      11.550   7.675  -9.836  1.00  0.00    -0.228 NA
ATOM      5  H   UNL     1      11.933   7.745  -8.904  1.00  0.00     0.137 HD
ATOM      6  H   UNL     1      11.514   8.491 -10.430  1.00  0.00     0.137 HD
ENDBRANCH   1   4
BRANCH   1   7
ATOM      7  C   UNL     1      11.027   4.900  -9.072  1.00  0.00     0.214 C 
BRANCH   7   8
ATOM      8  C   UNL     1      12.115   5.196  -8.121  1.00  0.00     0.108 A 
ATOM      9  N   UNL     1      13.374   5.507  -8.490  1.00  0.00    -0.083 NA
ATOM     10  C   UNL     1      12.090   5.199  -6.729  1.00  0.00     0.046 A 
ATOM     11  O   UNL     1      14.144   5.686  -7.446  1.00  0.00    -0.356 OA
ATOM     12  C   UNL     1      13.392   5.493  -6.341  1.00  0.00     0.167 A 
ATOM     13  C   UNL     1      11.080   4.976  -5.773  1.00  0.00     0.014 A 
ATOM     14  C   UNL     1      13.758   5.547  -4.988  1.00  0.00     0.051 A 
ATOM     15  C   UNL     1      11.431   5.031  -4.405  1.00  0.00     0.001 A 
ATOM     16  C   UNL     1      12.765   5.301  -4.016  1.00  0.00     0.004 A 
ENDBRANCH   7   8
ENDBRANCH   1   7
TORSDOF 3
ENDMDL
MODEL 17
REMARK VINA RESULT:    -5.202     11.830     12.911
REMARK INTER + INTRA:          -6.258
REMARK INTER:                  -5.906
REMARK INTRA:                  -0.352
REMARK UNBOUND:                -0.295
REMARK SMILES NS(=O)(=O)Cc1noc2ccccc12
REMARK SMILES IDX 2 1 3 2 4 3 1 4 5 7 6 8 7 9 14 10 8 11 9 12 13 13 10 14
REMARK SMILES IDX 12 15 11 16
REMARK H PARENT 1 5 1 6
REMARK Flexibility Score: inf
ROOT
ATOM      1  S   UNL     1      10.827  13.047  -2.635  1.00  0.00     0.214 S 
ATOM      2  O   UNL     1      11.871  13.293  -3.826  1.00  0.00    -0.212 OA
ATOM      3  O   UNL     1      11.322  13.807  -1.313  1.00  0.00    -0.212 OA
ENDROOT
BRANCH   1   4
ATOM      4  N   UNL     1      10.777  11.327  -2.291  1.00  0.00    -0.228 NA
ATOM      5  H   UNL     1      10.701  11.005  -1.336  1.00  0.00     0.137 HD
ATOM      6  H   UNL     1      10.824  10.659  -3.047  1.00  0.00     0.137 HD
ENDBRANCH   1   4
BRANCH   1   7
ATOM      7  C   UNL     1       9.152  13.617  -3.111  1.00  0.00     0.214 C 
BRANCH   7   8
ATOM      8  C   UNL     1       8.099  12.937  -2.334  1.00  0.00     0.108 A 
ATOM      9  N   UNL     1       7.823  11.620  -2.431  1.00  0.00    -0.083 NA
ATOM     10  C   UNL     1       7.205  13.468  -1.407  1.00  0.00     0.046 A 
ATOM     11  O   UNL     1       6.820  11.287  -1.658  1.00  0.00    -0.356 OA
ATOM     12  C   UNL     1       6.403  12.401  -1.020  1.00  0.00     0.167 A 
ATOM     13  C   UNL     1       7.010  14.757  -0.872  1.00  0.00     0.014 A 
ATOM     14  C   UNL     1       5.351  12.572  -0.107  1.00  0.00     0.051 A 
ATOM     15  C   UNL     1       5.957  14.944   0.051  1.00  0.00     0.001 A 
ATOM     16  C   UNL     1       5.124  13.861   0.420  1.00  0.00     0.004 A 
ENDBRANCH   7   8
ENDBRANCH   1   7
TORSDOF 3
ENDMDL
MODEL 18
REMARK VINA RESULT:    -5.098      5.715      6.776
REMARK INTER + INTRA:          -6.138
REMARK INTER:                  -5.735
REMARK INTRA:                  -0.404
REMARK UNBOUND:                -0.295
REMARK SMILES NS(=O)(=O)Cc1noc2ccccc12
REMARK SMILES IDX 2 1 3 2 4 3 1 4 5 7 6 8 7 9 14 10 8 11 9 12 13 13 10 14
REMARK SMILES IDX 12 15 11 16
REMARK H PARENT 1 5 1 6
REMARK Flexibility Score: inf
ROOT
ATOM      1  S   UNL     1      13.928   6.747 -10.234  1.00  0.00     0.214 S 
ATOM      2  O   UNL     1      15.116   7.824 -10.254  1.00  0.00    -0.212 OA
ATOM      3  O   UNL     1      13.773   6.083 -11.685  1.00  0.00    -0.212 OA
ENDROOT
BRANCH   1   4
ATOM      4  N   UNL     1      12.433   7.582  -9.852  1.00  0.00    -0.228 NA
ATOM      5  H   UNL     1      11.545   7.137 -10.036  1.00  0.00     0.137 HD
ATOM      6  H   UNL     1      12.459   8.508  -9.448  1.00  0.00     0.137 HD
ENDBRANCH   1   4
BRANCH   1   7
ATOM      7  C   UNL     1      14.240   5.458  -8.970  1.00  0.00     0.214 C 
BRANCH   7   8
ATOM      8  C   UNL     1      13.055   5.218  -8.126  1.00  0.00     0.108 A 
ATOM      9  N   UNL     1      11.840   4.887  -8.610  1.00  0.00    -0.083 NA
ATOM     10  C   UNL     1      12.930   5.293  -6.741  1.00  0.00     0.046 A 
ATOM     11  O   UNL     1      10.961   4.768  -7.647  1.00  0.00    -0.356 OA
ATOM     12  C   UNL     1      11.592   5.023  -6.480  1.00  0.00     0.167 A 
ATOM     13  C   UNL     1      13.834   5.569  -5.697  1.00  0.00     0.014 A 
ATOM     14  C   UNL     1      11.083   5.046  -5.173  1.00  0.00     0.051 A 
ATOM     15  C   UNL     1      13.337   5.592  -4.373  1.00  0.00     0.001 A 
ATOM     16  C   UNL     1      11.968   5.346  -4.115  1.00  0.00     0.004 A 
ENDBRANCH   7   8
ENDBRANCH   1   7
TORSDOF 3
ENDMDL
MODEL 19
REMARK VINA RESULT:    -5.055      3.133      4.511
REMARK INTER + INTRA:          -6.089
REMARK INTER:                  -5.708
REMARK INTRA:                  -0.381
REMARK UNBOUND:                -0.295
REMARK SMILES NS(=O)(=O)Cc1noc2ccccc12
REMARK SMILES IDX 2 1 3 2 4 3 1 4 5 7 6 8 7 9 14 10 8 11 9 12 13 13 10 14
REMARK SMILES IDX 12 15 11 16
REMARK H PARENT 1 5 1 6
REMARK Flexibility Score: inf
ROOT
ATOM      1  S   UNL     1      11.355   2.100 -15.167  1.00  0.00     0.214 S 
ATOM      2  O   UNL     1      10.521   0.907 -14.494  1.00  0.00    -0.212 OA
ATOM      3  O   UNL     1      11.926   1.627 -16.588  1.00  0.00    -0.212 OA
ENDROOT
BRANCH   1   4
ATOM      4  N   UNL     1      12.716   2.476 -14.126  1.00  0.00    -0.228 NA
ATOM      5  H   UNL     1      12.566   2.963 -13.254  1.00  0.00     0.137 HD
ATOM      6  H   UNL     1      13.651   2.207 -14.399  1.00  0.00     0.137 HD
ENDBRANCH   1   4
BRANCH   1   7
ATOM      7  C   UNL     1      10.312   3.593 -15.361  1.00  0.00     0.214 C 
BRANCH   7   8
ATOM      8  C   UNL     1       9.749   4.042 -14.074  1.00  0.00     0.108 A 
ATOM      9  N   UNL     1      10.490   4.300 -12.977  1.00  0.00    -0.083 NA
ATOM     10  C   UNL     1       8.420   4.264 -13.723  1.00  0.00     0.046 A 
ATOM     11  O   UNL     1       9.736   4.645 -11.964  1.00  0.00    -0.356 OA
ATOM     12  C   UNL     1       8.452   4.623 -12.381  1.00  0.00     0.167 A 
ATOM     13  C   UNL     1       7.202   4.188 -14.427  1.00  0.00     0.014 A 
ATOM     14  C   UNL     1       7.273   4.892 -11.668  1.00  0.00     0.051 A 
ATOM     15  C   UNL     1       6.006   4.460 -13.723  1.00  0.00     0.001 A 
ATOM     16  C   UNL     1       6.041   4.796 -12.349  1.00  0.00     0.004 A 
ENDBRANCH   7   8
ENDBRANCH   1   7
TORSDOF 3
ENDMDL
