MODEL 1
REMARK VINA RESULT:    -6.629      0.000      0.000
REMARK INTER + INTRA:          -7.803
REMARK INTER:                  -7.598
REMARK INTRA:                  -0.205
REMARK UNBOUND:                -0.205
REMARK SMILES NS(=O)(=O)Cc1noc2ccccc12
REMARK SMILES IDX 2 1 3 2 4 3 1 4 5 7 6 8 7 9 14 10 8 11 9 12 13 13 10 14
REMARK SMILES IDX 12 15 11 16
REMARK H PARENT 1 5 1 6
REMARK Flexibility Score: inf
ROOT
ATOM      1  S   UNL     1      14.078   3.904   1.399  1.00  0.00     0.214 S 
ATOM      2  O   UNL     1      14.825   2.511   1.669  1.00  0.00    -0.212 OA
ATOM      3  O   UNL     1      14.655   5.028   2.385  1.00  0.00    -0.212 OA
ENDROOT
BRANCH   1   4
ATOM      4  N   UNL     1      12.372   3.691   1.749  1.00  0.00    -0.228 NA
ATOM      5  H   UNL     1      11.964   4.133   2.560  1.00  0.00     0.137 HD
ATOM      6  H   UNL     1      11.797   3.127   1.138  1.00  0.00     0.137 HD
ENDBRANCH   1   4
BRANCH   1   7
ATOM      7  C   UNL     1      14.278   4.421  -0.347  1.00  0.00     0.214 C 
BRANCH   7   8
ATOM      8  C   UNL     1      13.993   5.856  -0.531  1.00  0.00     0.108 A 
ATOM      9  N   UNL     1      13.070   6.537   0.179  1.00  0.00    -0.083 NA
ATOM     10  C   UNL     1      14.558   6.759  -1.428  1.00  0.00     0.046 A 
ATOM     11  O   UNL     1      12.997   7.785  -0.211  1.00  0.00    -0.356 OA
ATOM     12  C   UNL     1      13.890   7.958  -1.209  1.00  0.00     0.167 A 
ATOM     13  C   UNL     1      15.571   6.658  -2.401  1.00  0.00     0.014 A 
ATOM     14  C   UNL     1      14.175   9.102  -1.968  1.00  0.00     0.051 A 
ATOM     15  C   UNL     1      15.873   7.803  -3.172  1.00  0.00     0.001 A 
ATOM     16  C   UNL     1      15.169   9.014  -2.966  1.00  0.00     0.004 A 
ENDBRANCH   7   8
ENDBRANCH   1   7
TORSDOF 3
ENDMDL
MODEL 2
REMARK VINA RESULT:    -6.400      3.985      5.368
REMARK INTER + INTRA:          -7.541
REMARK INTER:                  -7.162
REMARK INTRA:                  -0.379
REMARK UNBOUND:                -0.205
REMARK SMILES NS(=O)(=O)Cc1noc2ccccc12
REMARK SMILES IDX 2 1 3 2 4 3 1 4 5 7 6 8 7 9 14 10 8 11 9 12 13 13 10 14
REMARK SMILES IDX 12 15 11 16
REMARK H PARENT 1 5 1 6
REMARK Flexibility Score: inf
ROOT
ATOM      1  S   UNL     1      17.645   9.517  -2.771  1.00  0.00     0.214 S 
ATOM      2  O   UNL     1      18.262   8.424  -1.774  1.00  0.00    -0.212 OA
ATOM      3  O   UNL     1      18.672   9.800  -3.969  1.00  0.00    -0.212 OA
ENDROOT
BRANCH   1   4
ATOM      4  N   UNL     1      17.418  11.011  -1.880  1.00  0.00    -0.228 NA
ATOM      5  H   UNL     1      16.555  11.529  -1.972  1.00  0.00     0.137 HD
ATOM      6  H   UNL     1      18.150  11.355  -1.274  1.00  0.00     0.137 HD
ENDBRANCH   1   4
BRANCH   1   7
ATOM      7  C   UNL     1      16.030   8.957  -3.432  1.00  0.00     0.214 C 
BRANCH   7   8
ATOM      8  C   UNL     1      15.042   8.744  -2.358  1.00  0.00     0.108 A 
ATOM      9  N   UNL     1      14.359   9.738  -1.755  1.00  0.00    -0.083 NA
ATOM     10  C   UNL     1      14.636   7.554  -1.758  1.00  0.00     0.046 A 
ATOM     11  O   UNL     1      13.576   9.274  -0.814  1.00  0.00    -0.356 OA
ATOM     12  C   UNL     1      13.727   7.932  -0.777  1.00  0.00     0.167 A 
ATOM     13  C   UNL     1      14.965   6.200  -1.962  1.00  0.00     0.014 A 
ATOM     14  C   UNL     1      13.127   6.985   0.067  1.00  0.00     0.051 A 
ATOM     15  C   UNL     1      14.366   5.234  -1.122  1.00  0.00     0.001 A 
ATOM     16  C   UNL     1      13.464   5.626  -0.105  1.00  0.00     0.004 A 
ENDBRANCH   7   8
ENDBRANCH   1   7
TORSDOF 3
ENDMDL
MODEL 3
REMARK VINA RESULT:    -6.387      4.485      5.867
REMARK INTER + INTRA:          -7.525
REMARK INTER:                  -7.327
REMARK INTRA:                  -0.198
REMARK UNBOUND:                -0.205
REMARK SMILES NS(=O)(=O)Cc1noc2ccccc12
REMARK SMILES IDX 2 1 3 2 4 3 1 4 5 7 6 8 7 9 14 10 8 11 9 12 13 13 10 14
REMARK SMILES IDX 12 15 11 16
REMARK H PARENT 1 5 1 6
REMARK Flexibility Score: inf
ROOT
ATOM      1  S   UNL     1      18.619  10.162  -2.712  1.00  0.00     0.214 S 
ATOM      2  O   UNL     1      18.862   8.778  -1.940  1.00  0.00    -0.212 OA
ATOM      3  O   UNL     1      19.595  10.255  -3.980  1.00  0.00    -0.212 OA
ENDROOT
BRANCH   1   4
ATOM      4  N   UNL     1      19.011  11.479  -1.621  1.00  0.00    -0.228 NA
ATOM      5  H   UNL     1      19.975  11.738  -1.468  1.00  0.00     0.137 HD
ATOM      6  H   UNL     1      18.273  11.980  -1.147  1.00  0.00     0.137 HD
ENDBRANCH   1   4
BRANCH   1   7
ATOM      7  C   UNL     1      16.870  10.314  -3.238  1.00  0.00     0.214 C 
BRANCH   7   8
ATOM      8  C   UNL     1      15.946   9.727  -2.250  1.00  0.00     0.108 A 
ATOM      9  N   UNL     1      15.361  10.428  -1.257  1.00  0.00    -0.083 NA
ATOM     10  C   UNL     1      15.518   8.408  -2.119  1.00  0.00     0.046 A 
ATOM     11  O   UNL     1      14.619   9.656  -0.504  1.00  0.00    -0.356 OA
ATOM     12  C   UNL     1      14.699   8.401  -0.995  1.00  0.00     0.167 A 
ATOM     13  C   UNL     1      15.758   7.230  -2.852  1.00  0.00     0.014 A 
ATOM     14  C   UNL     1      14.107   7.217  -0.531  1.00  0.00     0.051 A 
ATOM     15  C   UNL     1      15.164   6.030  -2.399  1.00  0.00     0.001 A 
ATOM     16  C   UNL     1      14.356   6.021  -1.238  1.00  0.00     0.004 A 
ENDBRANCH   7   8
ENDBRANCH   1   7
TORSDOF 3
ENDMDL
MODEL 4
REMARK VINA RESULT:    -6.288      1.705      2.292
REMARK INTER + INTRA:          -7.412
REMARK INTER:                  -7.180
REMARK INTRA:                  -0.232
REMARK UNBOUND:                -0.205
REMARK SMILES NS(=O)(=O)Cc1noc2ccccc12
REMARK SMILES IDX 2 1 3 2 4 3 1 4 5 7 6 8 7 9 14 10 8 11 9 12 13 13 10 14
REMARK SMILES IDX 12 15 11 16
REMARK H PARENT 1 5 1 6
REMARK Flexibility Score: inf
ROOT
ATOM      1  S   UNL     1      13.868   4.125   1.719  1.00  0.00     0.214 S 
ATOM      2  O   UNL     1      14.768   4.971   2.741  1.00  0.00    -0.212 OA
ATOM      3  O   UNL     1      12.838   3.206   2.534  1.00  0.00    -0.212 OA
ENDROOT
BRANCH   1   4
ATOM      4  N   UNL     1      14.924   3.076   0.792  1.00  0.00    -0.228 NA
ATOM      5  H   UNL     1      15.906   3.016   1.022  1.00  0.00     0.137 HD
ATOM      6  H   UNL     1      14.551   2.530   0.027  1.00  0.00     0.137 HD
ENDBRANCH   1   4
BRANCH   1   7
ATOM      7  C   UNL     1      12.965   5.237   0.575  1.00  0.00     0.214 C 
BRANCH   7   8
ATOM      8  C   UNL     1      13.834   5.731  -0.510  1.00  0.00     0.108 A 
ATOM      9  N   UNL     1      14.568   4.932  -1.309  1.00  0.00    -0.083 NA
ATOM     10  C   UNL     1      14.085   7.042  -0.908  1.00  0.00     0.046 A 
ATOM     11  O   UNL     1      15.274   5.632  -2.162  1.00  0.00    -0.356 OA
ATOM     12  C   UNL     1      15.013   6.938  -1.938  1.00  0.00     0.167 A 
ATOM     13  C   UNL     1      13.609   8.297  -0.482  1.00  0.00     0.014 A 
ATOM     14  C   UNL     1      15.534   8.077  -2.570  1.00  0.00     0.051 A 
ATOM     15  C   UNL     1      14.121   9.454  -1.111  1.00  0.00     0.001 A 
ATOM     16  C   UNL     1      15.088   9.345  -2.139  1.00  0.00     0.004 A 
ENDBRANCH   7   8
ENDBRANCH   1   7
TORSDOF 3
ENDMDL
MODEL 5
REMARK VINA RESULT:    -6.187      2.691      3.857
REMARK INTER + INTRA:          -7.297
REMARK INTER:                  -7.082
REMARK INTRA:                  -0.215
REMARK UNBOUND:                -0.205
REMARK SMILES NS(=O)(=O)Cc1noc2ccccc12
REMARK SMILES IDX 2 1 3 2 4 3 1 4 5 7 6 8 7 9 14 10 8 11 9 12 13 13 10 14
REMARK SMILES IDX 12 15 11 16
REMARK H PARENT 1 5 1 6
REMARK Flexibility Score: inf
ROOT
ATOM      1  S   UNL     1      14.211   6.805  -0.235  1.00  0.00     0.214 S 
ATOM      2  O   UNL     1      12.696   7.327  -0.196  1.00  0.00    -0.212 OA
ATOM      3  O   UNL     1      14.460   5.960  -1.574  1.00  0.00    -0.212 OA
ENDROOT
BRANCH   1   4
ATOM      4  N   UNL     1      14.463   5.742   1.138  1.00  0.00    -0.228 NA
ATOM      5  H   UNL     1      14.088   4.804   1.126  1.00  0.00     0.137 HD
ATOM      6  H   UNL     1      14.984   6.066   1.940  1.00  0.00     0.137 HD
ENDBRANCH   1   4
BRANCH   1   7
ATOM      7  C   UNL     1      15.386   8.208  -0.136  1.00  0.00     0.214 C 
BRANCH   7   8
ATOM      8  C   UNL     1      16.011   8.493  -1.441  1.00  0.00     0.108 A 
ATOM      9  N   UNL     1      17.316   8.286  -1.711  1.00  0.00    -0.083 NA
ATOM     10  C   UNL     1      15.439   9.020  -2.596  1.00  0.00     0.046 A 
ATOM     11  O   UNL     1      17.613   8.657  -2.931  1.00  0.00    -0.356 OA
ATOM     12  C   UNL     1      16.485   9.127  -3.505  1.00  0.00     0.167 A 
ATOM     13  C   UNL     1      14.132   9.414  -2.941  1.00  0.00     0.014 A 
ATOM     14  C   UNL     1      16.286   9.660  -4.788  1.00  0.00     0.051 A 
ATOM     15  C   UNL     1      13.915   9.950  -4.231  1.00  0.00     0.001 A 
ATOM     16  C   UNL     1      14.988  10.085  -5.143  1.00  0.00     0.004 A 
ENDBRANCH   7   8
ENDBRANCH   1   7
TORSDOF 3
ENDMDL
MODEL 6
REMARK VINA RESULT:    -6.066      4.345      5.796
REMARK INTER + INTRA:          -7.157
REMARK INTER:                  -6.915
REMARK INTRA:                  -0.242
REMARK UNBOUND:                -0.205
REMARK SMILES NS(=O)(=O)Cc1noc2ccccc12
REMARK SMILES IDX 2 1 3 2 4 3 1 4 5 7 6 8 7 9 14 10 8 11 9 12 13 13 10 14
REMARK SMILES IDX 12 15 11 16
REMARK H PARENT 1 5 1 6
REMARK Flexibility Score: inf
ROOT
ATOM      1  S   UNL     1      18.343   9.878  -2.726  1.00  0.00     0.214 S 
ATOM      2  O   UNL     1      18.806   8.727  -1.709  1.00  0.00    -0.212 OA
ATOM      3  O   UNL     1      19.533  10.209  -3.747  1.00  0.00    -0.212 OA
ENDROOT
BRANCH   1   4
ATOM      4  N   UNL     1      17.998  11.326  -1.799  1.00  0.00    -0.228 NA
ATOM      5  H   UNL     1      17.570  11.253  -0.887  1.00  0.00     0.137 HD
ATOM      6  H   UNL     1      18.228  12.235  -2.176  1.00  0.00     0.137 HD
ENDBRANCH   1   4
BRANCH   1   7
ATOM      7  C   UNL     1      16.838   9.372  -3.639  1.00  0.00     0.214 C 
BRANCH   7   8
ATOM      8  C   UNL     1      16.045   8.382  -2.886  1.00  0.00     0.108 A 
ATOM      9  N   UNL     1      16.172   7.048  -3.031  1.00  0.00    -0.083 NA
ATOM     10  C   UNL     1      15.046   8.592  -1.939  1.00  0.00     0.046 A 
ATOM     11  O   UNL     1      15.324   6.404  -2.269  1.00  0.00    -0.356 OA
ATOM     12  C   UNL     1      14.602   7.321  -1.589  1.00  0.00     0.167 A 
ATOM     13  C   UNL     1      14.483   9.744  -1.356  1.00  0.00     0.014 A 
ATOM     14  C   UNL     1      13.559   7.139  -0.669  1.00  0.00     0.051 A 
ATOM     15  C   UNL     1      13.433   9.577  -0.425  1.00  0.00     0.001 A 
ATOM     16  C   UNL     1      12.965   8.283  -0.094  1.00  0.00     0.004 A 
ENDBRANCH   7   8
ENDBRANCH   1   7
TORSDOF 3
ENDMDL
MODEL 7
REMARK VINA RESULT:    -5.996      1.843      2.317
REMARK INTER + INTRA:          -7.078
REMARK INTER:                  -6.730
REMARK INTRA:                  -0.348
REMARK UNBOUND:                -0.205
REMARK SMILES NS(=O)(=O)Cc1noc2ccccc12
REMARK SMILES IDX 2 1 3 2 4 3 1 4 5 7 6 8 7 9 14 10 8 11 9 12 13 13 10 14
REMARK SMILES IDX 12 15 11 16
REMARK H PARENT 1 5 1 6
REMARK Flexibility Score: inf
ROOT
ATOM      1  S   UNL     1      13.420   5.496   0.161  1.00  0.00     0.214 S 
ATOM      2  O   UNL     1      12.426   4.289  -0.195  1.00  0.00    -0.212 OA
ATOM      3  O   UNL     1      14.300   5.113   1.445  1.00  0.00    -0.212 OA
ENDROOT
BRANCH   1   4
ATOM      4  N   UNL     1      12.455   6.905   0.560  1.00  0.00    -0.228 NA
ATOM      5  H   UNL     1      12.447   7.262   1.505  1.00  0.00     0.137 HD
ATOM      6  H   UNL     1      11.906   7.362  -0.156  1.00  0.00     0.137 HD
ENDBRANCH   1   4
BRANCH   1   7
ATOM      7  C   UNL     1      14.503   5.888  -1.264  1.00  0.00     0.214 C 
BRANCH   7   8
ATOM      8  C   UNL     1      14.995   7.278  -1.213  1.00  0.00     0.108 A 
ATOM      9  N   UNL     1      15.109   7.995  -0.077  1.00  0.00    -0.083 NA
ATOM     10  C   UNL     1      15.403   8.106  -2.255  1.00  0.00     0.046 A 
ATOM     11  O   UNL     1      15.536   9.208  -0.321  1.00  0.00    -0.356 OA
ATOM     12  C   UNL     1      15.717   9.320  -1.655  1.00  0.00     0.167 A 
ATOM     13  C   UNL     1      15.529   7.929  -3.647  1.00  0.00     0.014 A 
ATOM     14  C   UNL     1      16.139  10.422  -2.414  1.00  0.00     0.051 A 
ATOM     15  C   UNL     1      15.957   9.029  -4.424  1.00  0.00     0.001 A 
ATOM     16  C   UNL     1      16.246  10.272  -3.812  1.00  0.00     0.004 A 
ENDBRANCH   7   8
ENDBRANCH   1   7
TORSDOF 3
ENDMDL
MODEL 8
REMARK VINA RESULT:    -5.894      3.258      4.673
REMARK INTER + INTRA:          -6.960
REMARK INTER:                  -6.802
REMARK INTRA:                  -0.159
REMARK UNBOUND:                -0.205
REMARK SMILES NS(=O)(=O)Cc1noc2ccccc12
REMARK SMILES IDX 2 1 3 2 4 3 1 4 5 7 6 8 7 9 14 10 8 11 9 12 13 13 10 14
REMARK SMILES IDX 12 15 11 16
REMARK H PARENT 1 5 1 6
REMARK Flexibility Score: inf
ROOT
ATOM      1  S   UNL     1      13.900   8.124  -0.758  1.00  0.00     0.214 S 
ATOM      2  O   UNL     1      13.167   9.521  -1.045  1.00  0.00    -0.212 OA
ATOM      3  O   UNL     1      12.869   7.101  -0.078  1.00  0.00    -0.212 OA
ENDROOT
BRANCH   1   4
ATOM      4  N   UNL     1      15.212   8.410   0.370  1.00  0.00    -0.228 NA
ATOM      5  H   UNL     1      16.167   8.236   0.089  1.00  0.00     0.137 HD
ATOM      6  H   UNL     1      15.014   8.750   1.301  1.00  0.00     0.137 HD
ENDBRANCH   1   4
BRANCH   1   7
ATOM      7  C   UNL     1      14.577   7.415  -2.306  1.00  0.00     0.214 C 
BRANCH   7   8
ATOM      8  C   UNL     1      15.392   8.395  -3.048  1.00  0.00     0.108 A 
ATOM      9  N   UNL     1      14.934   9.121  -4.088  1.00  0.00    -0.083 NA
ATOM     10  C   UNL     1      16.726   8.749  -2.865  1.00  0.00     0.046 A 
ATOM     11  O   UNL     1      15.875   9.885  -4.585  1.00  0.00    -0.356 OA
ATOM     12  C   UNL     1      16.998   9.675  -3.865  1.00  0.00     0.167 A 
ATOM     13  C   UNL     1      17.718   8.361  -1.944  1.00  0.00     0.014 A 
ATOM     14  C   UNL     1      18.276  10.234  -4.015  1.00  0.00     0.051 A 
ATOM     15  C   UNL     1      19.010   8.919  -2.079  1.00  0.00     0.001 A 
ATOM     16  C   UNL     1      19.290   9.839  -3.117  1.00  0.00     0.004 A 
ENDBRANCH   7   8
ENDBRANCH   1   7
TORSDOF 3
ENDMDL
MODEL 9
REMARK VINA RESULT:    -5.845      3.667      4.880
REMARK INTER + INTRA:          -6.905
REMARK INTER:                  -6.542
REMARK INTRA:                  -0.363
REMARK UNBOUND:                -0.205
REMARK SMILES NS(=O)(=O)Cc1noc2ccccc12
REMARK SMILES IDX 2 1 3 2 4 3 1 4 5 7 6 8 7 9 14 10 8 11 9 12 13 13 10 14
REMARK SMILES IDX 12 15 11 16
REMARK H PARENT 1 5 1 6
REMARK Flexibility Score: inf
ROOT
ATOM      1  S   UNL     1      13.425   9.266  -0.470  1.00  0.00     0.214 S 
ATOM      2  O   UNL     1      14.476   9.879   0.574  1.00  0.00    -0.212 OA
ATOM      3  O   UNL     1      12.000   9.977  -0.285  1.00  0.00    -0.212 OA
ENDROOT
BRANCH   1   4
ATOM      4  N   UNL     1      13.234   7.557  -0.121  1.00  0.00    -0.228 NA
ATOM      5  H   UNL     1      13.044   6.907  -0.871  1.00  0.00     0.137 HD
ATOM      6  H   UNL     1      13.313   7.223   0.829  1.00  0.00     0.137 HD
ENDBRANCH   1   4
BRANCH   1   7
ATOM      7  C   UNL     1      14.023   9.468  -2.190  1.00  0.00     0.214 C 
BRANCH   7   8
ATOM      8  C   UNL     1      15.367   8.888  -2.376  1.00  0.00     0.108 A 
ATOM      9  N   UNL     1      15.605   7.568  -2.506  1.00  0.00    -0.083 NA
ATOM     10  C   UNL     1      16.602   9.529  -2.435  1.00  0.00     0.046 A 
ATOM     11  O   UNL     1      16.886   7.325  -2.621  1.00  0.00    -0.356 OA
ATOM     12  C   UNL     1      17.536   8.508  -2.570  1.00  0.00     0.167 A 
ATOM     13  C   UNL     1      17.002  10.878  -2.382  1.00  0.00     0.014 A 
ATOM     14  C   UNL     1      18.911   8.779  -2.627  1.00  0.00     0.051 A 
ATOM     15  C   UNL     1      18.384  11.168  -2.442  1.00  0.00     0.001 A 
ATOM     16  C   UNL     1      19.333  10.123  -2.550  1.00  0.00     0.004 A 
ENDBRANCH   7   8
ENDBRANCH   1   7
TORSDOF 3
ENDMDL
MODEL 10
REMARK VINA RESULT:    -5.799      2.020      2.552
REMARK INTER + INTRA:          -6.852
REMARK INTER:                  -7.451
REMARK INTRA:                   0.600
REMARK UNBOUND:                -0.205
REMARK SMILES NS(=O)(=O)Cc1noc2ccccc12
REMARK SMILES IDX 2 1 3 2 4 3 1 4 5 7 6 8 7 9 14 10 8 11 9 12 13 13 10 14
REMARK SMILES IDX 12 15 11 16
REMARK H PARENT 1 5 1 6
REMARK Flexibility Score: inf
ROOT
ATOM      1  S   UNL     1      13.724   4.956   0.277  1.00  0.00     0.214 S 
ATOM      2  O   UNL     1      14.694   4.155  -0.717  1.00  0.00    -0.212 OA
ATOM      3  O   UNL     1      14.317   4.911   1.766  1.00  0.00    -0.212 OA
ENDROOT
BRANCH   1   4
ATOM      4  N   UNL     1      12.162   4.157   0.286  1.00  0.00    -0.228 NA
ATOM      5  H   UNL     1      11.869   3.629   1.096  1.00  0.00     0.137 HD
ATOM      6  H   UNL     1      11.555   4.224  -0.519  1.00  0.00     0.137 HD
ENDBRANCH   1   4
BRANCH   1   7
ATOM      7  C   UNL     1      13.513   6.690  -0.276  1.00  0.00     0.214 C 
BRANCH   7   8
ATOM      8  C   UNL     1      14.482   7.052  -1.327  1.00  0.00     0.108 A 
ATOM      9  N   UNL     1      14.956   6.186  -2.245  1.00  0.00    -0.083 NA
ATOM     10  C   UNL     1      15.094   8.278  -1.576  1.00  0.00     0.046 A 
ATOM     11  O   UNL     1      15.829   6.760  -3.035  1.00  0.00    -0.356 OA
ATOM     12  C   UNL     1      15.950   8.048  -2.646  1.00  0.00     0.167 A 
ATOM     13  C   UNL     1      14.996   9.552  -0.983  1.00  0.00     0.014 A 
ATOM     14  C   UNL     1      16.771   9.065  -3.157  1.00  0.00     0.051 A 
ATOM     15  C   UNL     1      15.814  10.588  -1.490  1.00  0.00     0.001 A 
ATOM     16  C   UNL     1      16.706  10.342  -2.560  1.00  0.00     0.004 A 
ENDBRANCH   7   8
ENDBRANCH   1   7
TORSDOF 3
ENDMDL
MODEL 11
REMARK VINA RESULT:    -5.652      6.345      7.786
REMARK INTER + INTRA:          -6.684
REMARK INTER:                  -6.652
REMARK INTRA:                  -0.031
REMARK UNBOUND:                -0.205
REMARK SMILES NS(=O)(=O)Cc1noc2ccccc12
REMARK SMILES IDX 2 1 3 2 4 3 1 4 5 7 6 8 7 9 14 10 8 11 9 12 13 13 10 14
REMARK SMILES IDX 12 15 11 16
REMARK H PARENT 1 5 1 6
REMARK Flexibility Score: inf
ROOT
ATOM      1  S   UNL     1      20.756  11.810  -3.200  1.00  0.00     0.214 S 
ATOM      2  O   UNL     1      21.346  10.437  -3.780  1.00  0.00    -0.212 OA
ATOM      3  O   UNL     1      21.204  13.032  -4.137  1.00  0.00    -0.212 OA
ENDROOT
BRANCH   1   4
ATOM      4  N   UNL     1      21.431  12.070  -1.602  1.00  0.00    -0.228 NA
ATOM      5  H   UNL     1      21.014  11.622  -0.798  1.00  0.00     0.137 HD
ATOM      6  H   UNL     1      22.238  12.666  -1.485  1.00  0.00     0.137 HD
ENDBRANCH   1   4
BRANCH   1   7
ATOM      7  C   UNL     1      18.929  11.734  -3.079  1.00  0.00     0.214 C 
BRANCH   7   8
ATOM      8  C   UNL     1      18.458  10.379  -2.734  1.00  0.00     0.108 A 
ATOM      9  N   UNL     1      19.173   9.496  -2.008  1.00  0.00    -0.083 NA
ATOM     10  C   UNL     1      17.264   9.749  -3.073  1.00  0.00     0.046 A 
ATOM     11  O   UNL     1      18.536   8.359  -1.881  1.00  0.00    -0.356 OA
ATOM     12  C   UNL     1      17.360   8.471  -2.534  1.00  0.00     0.167 A 
ATOM     13  C   UNL     1      16.120  10.152  -3.789  1.00  0.00     0.014 A 
ATOM     14  C   UNL     1      16.338   7.526  -2.710  1.00  0.00     0.051 A 
ATOM     15  C   UNL     1      15.080   9.212  -3.971  1.00  0.00     0.001 A 
ATOM     16  C   UNL     1      15.195   7.903  -3.446  1.00  0.00     0.004 A 
ENDBRANCH   7   8
ENDBRANCH   1   7
TORSDOF 3
ENDMDL
MODEL 12
REMARK VINA RESULT:    -5.648      3.922      5.055
REMARK INTER + INTRA:          -6.678
REMARK INTER:                  -6.544
REMARK INTRA:                  -0.134
REMARK UNBOUND:                -0.205
REMARK SMILES NS(=O)(=O)Cc1noc2ccccc12
REMARK SMILES IDX 2 1 3 2 4 3 1 4 5 7 6 8 7 9 14 10 8 11 9 12 13 13 10 14
REMARK SMILES IDX 12 15 11 16
REMARK H PARENT 1 5 1 6
REMARK Flexibility Score: inf
ROOT
ATOM      1  S   UNL     1      13.508   9.171  -0.420  1.00  0.00     0.214 S 
ATOM      2  O   UNL     1      12.182   9.673   0.328  1.00  0.00    -0.212 OA
ATOM      3  O   UNL     1      13.496   7.572  -0.531  1.00  0.00    -0.212 OA
ENDROOT
BRANCH   1   4
ATOM      4  N   UNL     1      14.896   9.642   0.543  1.00  0.00    -0.228 NA
ATOM      5  H   UNL     1      15.581  10.281   0.164  1.00  0.00     0.137 HD
ATOM      6  H   UNL     1      15.012   9.275   1.477  1.00  0.00     0.137 HD
ENDBRANCH   1   4
BRANCH   1   7
ATOM      7  C   UNL     1      13.642   9.927  -2.084  1.00  0.00     0.214 C 
BRANCH   7   8
ATOM      8  C   UNL     1      14.868   9.501  -2.783  1.00  0.00     0.108 A 
ATOM      9  N   UNL     1      14.918   8.475  -3.657  1.00  0.00    -0.083 NA
ATOM     10  C   UNL     1      16.159  10.014  -2.690  1.00  0.00     0.046 A 
ATOM     11  O   UNL     1      16.135   8.290  -4.103  1.00  0.00    -0.356 OA
ATOM     12  C   UNL     1      16.932   9.212  -3.520  1.00  0.00     0.167 A 
ATOM     13  C   UNL     1      16.732  11.082  -1.972  1.00  0.00     0.014 A 
ATOM     14  C   UNL     1      18.315   9.414  -3.652  1.00  0.00     0.051 A 
ATOM     15  C   UNL     1      18.123  11.301  -2.097  1.00  0.00     0.001 A 
ATOM     16  C   UNL     1      18.911  10.463  -2.921  1.00  0.00     0.004 A 
ENDBRANCH   7   8
ENDBRANCH   1   7
TORSDOF 3
ENDMDL
MODEL 13
REMARK VINA RESULT:    -5.483      2.130      2.858
REMARK INTER + INTRA:          -6.489
REMARK INTER:                  -6.107
REMARK INTRA:                  -0.383
REMARK UNBOUND:                -0.205
REMARK SMILES NS(=O)(=O)Cc1noc2ccccc12
REMARK SMILES IDX 2 1 3 2 4 3 1 4 5 7 6 8 7 9 14 10 8 11 9 12 13 13 10 14
REMARK SMILES IDX 12 15 11 16
REMARK H PARENT 1 5 1 6
REMARK Flexibility Score: inf
ROOT
ATOM      1  S   UNL     1      14.028   6.065   0.182  1.00  0.00     0.214 S 
ATOM      2  O   UNL     1      14.055   5.241  -1.193  1.00  0.00    -0.212 OA
ATOM      3  O   UNL     1      14.302   5.076   1.413  1.00  0.00    -0.212 OA
ENDROOT
BRANCH   1   4
ATOM      4  N   UNL     1      12.428   6.756   0.380  1.00  0.00    -0.228 NA
ATOM      5  H   UNL     1      12.009   6.805   1.298  1.00  0.00     0.137 HD
ATOM      6  H   UNL     1      11.925   7.106  -0.423  1.00  0.00     0.137 HD
ENDBRANCH   1   4
BRANCH   1   7
ATOM      7  C   UNL     1      15.270   7.413   0.156  1.00  0.00     0.214 C 
BRANCH   7   8
ATOM      8  C   UNL     1      15.116   8.278  -1.029  1.00  0.00     0.108 A 
ATOM      9  N   UNL     1      13.933   8.761  -1.460  1.00  0.00    -0.083 NA
ATOM     10  C   UNL     1      16.086   8.741  -1.914  1.00  0.00     0.046 A 
ATOM     11  O   UNL     1      14.078   9.470  -2.551  1.00  0.00    -0.356 OA
ATOM     12  C   UNL     1      15.390   9.471  -2.870  1.00  0.00     0.167 A 
ATOM     13  C   UNL     1      17.486   8.599  -1.984  1.00  0.00     0.014 A 
ATOM     14  C   UNL     1      16.048  10.067  -3.956  1.00  0.00     0.051 A 
ATOM     15  C   UNL     1      18.164   9.197  -3.070  1.00  0.00     0.001 A 
ATOM     16  C   UNL     1      17.448   9.914  -4.058  1.00  0.00     0.004 A 
ENDBRANCH   7   8
ENDBRANCH   1   7
TORSDOF 3
ENDMDL
MODEL 14
REMARK VINA RESULT:    -5.383      8.055      9.412
REMARK INTER + INTRA:          -6.374
REMARK INTER:                  -6.010
REMARK INTRA:                  -0.364
REMARK UNBOUND:                -0.205
REMARK SMILES NS(=O)(=O)Cc1noc2ccccc12
REMARK SMILES IDX 2 1 3 2 4 3 1 4 5 7 6 8 7 9 14 10 8 11 9 12 13 13 10 14
REMARK SMILES IDX 12 15 11 16
REMARK H PARENT 1 5 1 6
REMARK Flexibility Score: inf
ROOT
ATOM      1  S   UNL     1      18.683  10.108  -2.760  1.00  0.00     0.214 S 
ATOM      2  O   UNL     1      17.614   9.888  -3.935  1.00  0.00    -0.212 OA
ATOM      3  O   UNL     1      18.753   8.798  -1.838  1.00  0.00    -0.212 OA
ENDROOT
BRANCH   1   4
ATOM      4  N   UNL     1      18.143  11.448  -1.766  1.00  0.00    -0.228 NA
ATOM      5  H   UNL     1      17.423  11.305  -1.072  1.00  0.00     0.137 HD
ATOM      6  H   UNL     1      18.551  12.365  -1.886  1.00  0.00     0.137 HD
ENDBRANCH   1   4
BRANCH   1   7
ATOM      7  C   UNL     1      20.336  10.494  -3.449  1.00  0.00     0.214 C 
BRANCH   7   8
ATOM      8  C   UNL     1      20.840  11.795  -2.970  1.00  0.00     0.108 A 
ATOM      9  N   UNL     1      20.964  12.121  -1.667  1.00  0.00    -0.083 NA
ATOM     10  C   UNL     1      21.253  12.904  -3.704  1.00  0.00     0.046 A 
ATOM     11  O   UNL     1      21.400  13.347  -1.523  1.00  0.00    -0.356 OA
ATOM     12  C   UNL     1      21.579  13.868  -2.757  1.00  0.00     0.167 A 
ATOM     13  C   UNL     1      21.374  13.169  -5.082  1.00  0.00     0.014 A 
ATOM     14  C   UNL     1      22.009  15.149  -3.135  1.00  0.00     0.051 A 
ATOM     15  C   UNL     1      21.809  14.453  -5.479  1.00  0.00     0.001 A 
ATOM     16  C   UNL     1      22.111  15.441  -4.512  1.00  0.00     0.004 A 
ENDBRANCH   7   8
ENDBRANCH   1   7
TORSDOF 3
ENDMDL
MODEL 15
REMARK VINA RESULT:    -5.267      5.273      6.142
REMARK INTER + INTRA:          -6.241
REMARK INTER:                  -6.427
REMARK INTRA:                   0.185
REMARK UNBOUND:                -0.205
REMARK SMILES NS(=O)(=O)Cc1noc2ccccc12
REMARK SMILES IDX 2 1 3 2 4 3 1 4 5 7 6 8 7 9 14 10 8 11 9 12 13 13 10 14
REMARK SMILES IDX 12 15 11 16
REMARK H PARENT 1 5 1 6
REMARK Flexibility Score: inf
ROOT
ATOM      1  S   UNL     1      18.792  10.028  -2.836  1.00  0.00     0.214 S 
ATOM      2  O   UNL     1      19.071   8.871  -1.762  1.00  0.00    -0.212 OA
ATOM      3  O   UNL     1      20.176  10.510  -3.485  1.00  0.00    -0.212 OA
ENDROOT
BRANCH   1   4
ATOM      4  N   UNL     1      18.073  11.394  -2.001  1.00  0.00    -0.228 NA
ATOM      5  H   UNL     1      18.256  11.538  -1.018  1.00  0.00     0.137 HD
ATOM      6  H   UNL     1      17.476  12.036  -2.503  1.00  0.00     0.137 HD
ENDBRANCH   1   4
BRANCH   1   7
ATOM      7  C   UNL     1      17.644   9.443  -4.138  1.00  0.00     0.214 C 
BRANCH   7   8
ATOM      8  C   UNL     1      16.233   9.632  -3.752  1.00  0.00     0.108 A 
ATOM      9  N   UNL     1      15.324  10.276  -4.512  1.00  0.00    -0.083 NA
ATOM     10  C   UNL     1      15.577   9.233  -2.590  1.00  0.00     0.046 A 
ATOM     11  O   UNL     1      14.159  10.331  -3.915  1.00  0.00    -0.356 OA
ATOM     12  C   UNL     1      14.278   9.709  -2.722  1.00  0.00     0.167 A 
ATOM     13  C   UNL     1      15.975   8.516  -1.445  1.00  0.00     0.014 A 
ATOM     14  C   UNL     1      13.324   9.523  -1.710  1.00  0.00     0.051 A 
ATOM     15  C   UNL     1      15.025   8.316  -0.418  1.00  0.00     0.001 A 
ATOM     16  C   UNL     1      13.712   8.829  -0.544  1.00  0.00     0.004 A 
ENDBRANCH   7   8
ENDBRANCH   1   7
TORSDOF 3
ENDMDL
MODEL 16
REMARK VINA RESULT:    -5.240      6.446      7.916
REMARK INTER + INTRA:          -6.211
REMARK INTER:                  -5.923
REMARK INTRA:                  -0.288
REMARK UNBOUND:                -0.205
REMARK SMILES NS(=O)(=O)Cc1noc2ccccc12
REMARK SMILES IDX 2 1 3 2 4 3 1 4 5 7 6 8 7 9 14 10 8 11 9 12 13 13 10 14
REMARK SMILES IDX 12 15 11 16
REMARK H PARENT 1 5 1 6
REMARK Flexibility Score: inf
ROOT
ATOM      1  S   UNL     1      20.506  12.375  -2.331  1.00  0.00     0.214 S 
ATOM      2  O   UNL     1      20.249  13.246  -3.653  1.00  0.00    -0.212 OA
ATOM      3  O   UNL     1      21.302  13.252  -1.251  1.00  0.00    -0.212 OA
ENDROOT
BRANCH   1   4
ATOM      4  N   UNL     1      21.504  10.999  -2.763  1.00  0.00    -0.228 NA
ATOM      5  H   UNL     1      22.125  11.054  -3.558  1.00  0.00     0.137 HD
ATOM      6  H   UNL     1      21.460  10.150  -2.216  1.00  0.00     0.137 HD
ENDBRANCH   1   4
BRANCH   1   7
ATOM      7  C   UNL     1      18.923  11.777  -1.629  1.00  0.00     0.214 C 
BRANCH   7   8
ATOM      8  C   UNL     1      18.252  10.817  -2.525  1.00  0.00     0.108 A 
ATOM      9  N   UNL     1      18.837  10.262  -3.607  1.00  0.00    -0.083 NA
ATOM     10  C   UNL     1      16.953  10.320  -2.470  1.00  0.00     0.046 A 
ATOM     11  O   UNL     1      18.007   9.475  -4.244  1.00  0.00    -0.356 OA
ATOM     12  C   UNL     1      16.830   9.494  -3.581  1.00  0.00     0.167 A 
ATOM     13  C   UNL     1      15.878  10.504  -1.579  1.00  0.00     0.014 A 
ATOM     14  C   UNL     1      15.625   8.838  -3.875  1.00  0.00     0.051 A 
ATOM     15  C   UNL     1      14.658   9.846  -1.859  1.00  0.00     0.001 A 
ATOM     16  C   UNL     1      14.529   9.030  -3.007  1.00  0.00     0.004 A 
ENDBRANCH   7   8
ENDBRANCH   1   7
TORSDOF 3
ENDMDL
MODEL 17
REMARK VINA RESULT:    -5.097      5.015      6.625
REMARK INTER + INTRA:          -6.047
REMARK INTER:                  -5.707
REMARK INTRA:                  -0.341
REMARK UNBOUND:                -0.205
REMARK SMILES NS(=O)(=O)Cc1noc2ccccc12
REMARK SMILES IDX 2 1 3 2 4 3 1 4 5 7 6 8 7 9 14 10 8 11 9 12 13 13 10 14
REMARK SMILES IDX 12 15 11 16
REMARK H PARENT 1 5 1 6
REMARK Flexibility Score: inf
ROOT
ATOM      1  S   UNL     1      15.035   9.596  -1.342  1.00  0.00     0.214 S 
ATOM      2  O   UNL     1      14.195   9.773   0.013  1.00  0.00    -0.212 OA
ATOM      3  O   UNL     1      14.035   9.517  -2.593  1.00  0.00    -0.212 OA
ENDROOT
BRANCH   1   4
ATOM      4  N   UNL     1      15.918   8.083  -1.251  1.00  0.00    -0.228 NA
ATOM      5  H   UNL     1      16.775   8.030  -0.719  1.00  0.00     0.137 HD
ATOM      6  H   UNL     1      15.570   7.264  -1.729  1.00  0.00     0.137 HD
ENDBRANCH   1   4
BRANCH   1   7
ATOM      7  C   UNL     1      16.220  10.976  -1.557  1.00  0.00     0.214 C 
BRANCH   7   8
ATOM      8  C   UNL     1      17.377  10.583  -2.384  1.00  0.00     0.108 A 
ATOM      9  N   UNL     1      17.354   9.574  -3.278  1.00  0.00    -0.083 NA
ATOM     10  C   UNL     1      18.664  11.115  -2.408  1.00  0.00     0.046 A 
ATOM     11  O   UNL     1      18.524   9.417  -3.846  1.00  0.00    -0.356 OA
ATOM     12  C   UNL     1      19.361  10.340  -3.327  1.00  0.00     0.167 A 
ATOM     13  C   UNL     1      19.290  12.178  -1.729  1.00  0.00     0.014 A 
ATOM     14  C   UNL     1      20.721  10.566  -3.591  1.00  0.00     0.051 A 
ATOM     15  C   UNL     1      20.658  12.421  -1.987  1.00  0.00     0.001 A 
ATOM     16  C   UNL     1      21.372  11.611  -2.901  1.00  0.00     0.004 A 
ENDBRANCH   7   8
ENDBRANCH   1   7
TORSDOF 3
ENDMDL
MODEL 18
REMARK VINA RESULT:    -5.058     11.279     12.378
REMARK INTER + INTRA:          -6.003
REMARK INTER:                  -5.808
REMARK INTRA:                  -0.194
REMARK UNBOUND:                -0.205
REMARK SMILES NS(=O)(=O)Cc1noc2ccccc12
REMARK SMILES IDX 2 1 3 2 4 3 1 4 5 7 6 8 7 9 14 10 8 11 9 12 13 13 10 14
REMARK SMILES IDX 12 15 11 16
REMARK H PARENT 1 5 1 6
REMARK Flexibility Score: inf
ROOT
ATOM      1  S   UNL     1      10.749  15.394   9.817  1.00  0.00     0.214 S 
ATOM      2  O   UNL     1      11.644  15.146  11.124  1.00  0.00    -0.212 OA
ATOM      3  O   UNL     1      10.210  16.903   9.807  1.00  0.00    -0.212 OA
ENDROOT
BRANCH   1   4
ATOM      4  N   UNL     1       9.365  14.318   9.885  1.00  0.00    -0.228 NA
ATOM      5  H   UNL     1       9.330  13.502   9.291  1.00  0.00     0.137 HD
ATOM      6  H   UNL     1       8.602  14.515  10.517  1.00  0.00     0.137 HD
ENDBRANCH   1   4
BRANCH   1   7
ATOM      7  C   UNL     1      11.710  15.047   8.296  1.00  0.00     0.214 C 
BRANCH   7   8
ATOM      8  C   UNL     1      12.155  13.642   8.236  1.00  0.00     0.108 A 
ATOM      9  N   UNL     1      13.339  13.206   8.713  1.00  0.00    -0.083 NA
ATOM     10  C   UNL     1      11.506  12.535   7.694  1.00  0.00     0.046 A 
ATOM     11  O   UNL     1      13.495  11.924   8.498  1.00  0.00    -0.356 OA
ATOM     12  C   UNL     1      12.391  11.476   7.861  1.00  0.00     0.167 A 
ATOM     13  C   UNL     1      10.254  12.346   7.079  1.00  0.00     0.014 A 
ATOM     14  C   UNL     1      12.086  10.188   7.395  1.00  0.00     0.051 A 
ATOM     15  C   UNL     1       9.930  11.053   6.608  1.00  0.00     0.001 A 
ATOM     16  C   UNL     1      10.846   9.985   6.753  1.00  0.00     0.004 A 
ENDBRANCH   7   8
ENDBRANCH   1   7
TORSDOF 3
ENDMDL
MODEL 19
REMARK VINA RESULT:    -5.031      5.852      7.170
REMARK INTER + INTRA:          -5.971
REMARK INTER:                  -5.659
REMARK INTRA:                  -0.312
REMARK UNBOUND:                -0.205
REMARK SMILES NS(=O)(=O)Cc1noc2ccccc12
REMARK SMILES IDX 2 1 3 2 4 3 1 4 5 7 6 8 7 9 14 10 8 11 9 12 13 13 10 14
REMARK SMILES IDX 12 15 11 16
REMARK H PARENT 1 5 1 6
REMARK Flexibility Score: inf
ROOT
ATOM      1  S   UNL     1      16.538   8.659  -2.541  1.00  0.00     0.214 S 
ATOM      2  O   UNL     1      15.775   9.756  -3.427  1.00  0.00    -0.212 OA
ATOM      3  O   UNL     1      16.051   7.190  -2.960  1.00  0.00    -0.212 OA
ENDROOT
BRANCH   1   4
ATOM      4  N   UNL     1      16.115   8.917  -0.858  1.00  0.00    -0.228 NA
ATOM      5  H   UNL     1      16.012   8.128  -0.236  1.00  0.00     0.137 HD
ATOM      6  H   UNL     1      15.975   9.855  -0.510  1.00  0.00     0.137 HD
ENDBRANCH   1   4
BRANCH   1   7
ATOM      7  C   UNL     1      18.353   8.811  -2.738  1.00  0.00     0.214 C 
BRANCH   7   8
ATOM      8  C   UNL     1      18.828  10.171  -2.420  1.00  0.00     0.108 A 
ATOM      9  N   UNL     1      18.167  11.031  -1.619  1.00  0.00    -0.083 NA
ATOM     10  C   UNL     1      19.973  10.830  -2.860  1.00  0.00     0.046 A 
ATOM     11  O   UNL     1      18.791  12.179  -1.536  1.00  0.00    -0.356 OA
ATOM     12  C   UNL     1      19.903  12.099  -2.298  1.00  0.00     0.167 A 
ATOM     13  C   UNL     1      21.052  10.458  -3.686  1.00  0.00     0.014 A 
ATOM     14  C   UNL     1      20.886  13.067  -2.554  1.00  0.00     0.051 A 
ATOM     15  C   UNL     1      22.052  11.422  -3.950  1.00  0.00     0.001 A 
ATOM     16  C   UNL     1      21.962  12.722  -3.399  1.00  0.00     0.004 A 
ENDBRANCH   7   8
ENDBRANCH   1   7
TORSDOF 3
ENDMDL
MODEL 20
REMARK VINA RESULT:    -4.891     10.026     10.577
REMARK INTER + INTRA:          -5.810
REMARK INTER:                  -5.466
REMARK INTRA:                  -0.345
REMARK UNBOUND:                -0.205
REMARK SMILES NS(=O)(=O)Cc1noc2ccccc12
REMARK SMILES IDX 2 1 3 2 4 3 1 4 5 7 6 8 7 9 14 10 8 11 9 12 13 13 10 14
REMARK SMILES IDX 12 15 11 16
REMARK H PARENT 1 5 1 6
REMARK Flexibility Score: inf
ROOT
ATOM      1  S   UNL     1      15.017   9.222   9.951  1.00  0.00     0.214 S 
ATOM      2  O   UNL     1      13.884   8.168  10.370  1.00  0.00    -0.212 OA
ATOM      3  O   UNL     1      16.460   8.528  10.034  1.00  0.00    -0.212 OA
ENDROOT
BRANCH   1   4
ATOM      4  N   UNL     1      14.983  10.553  11.092  1.00  0.00    -0.228 NA
ATOM      5  H   UNL     1      15.818  10.802  11.604  1.00  0.00     0.137 HD
ATOM      6  H   UNL     1      14.128  11.072  11.239  1.00  0.00     0.137 HD
ENDBRANCH   1   4
BRANCH   1   7
ATOM      7  C   UNL     1      14.714   9.865   8.262  1.00  0.00     0.214 C 
BRANCH   7   8
ATOM      8  C   UNL     1      13.761  10.991   8.267  1.00  0.00     0.108 A 
ATOM      9  N   UNL     1      14.003  12.180   8.856  1.00  0.00    -0.083 NA
ATOM     10  C   UNL     1      12.482  11.065   7.720  1.00  0.00     0.046 A 
ATOM     11  O   UNL     1      12.977  12.985   8.741  1.00  0.00    -0.356 OA
ATOM     12  C   UNL     1      12.014  12.330   8.058  1.00  0.00     0.167 A 
ATOM     13  C   UNL     1      11.689  10.170   6.976  1.00  0.00     0.014 A 
ATOM     14  C   UNL     1      10.724  12.751   7.699  1.00  0.00     0.051 A 
ATOM     15  C   UNL     1      10.389  10.582   6.604  1.00  0.00     0.001 A 
ATOM     16  C   UNL     1       9.905  11.859   6.975  1.00  0.00     0.004 A 
ENDBRANCH   7   8
ENDBRANCH   1   7
TORSDOF 3
ENDMDL
