MODEL 1
REMARK VINA RESULT:    43.079      0.000      0.000
REMARK INTER + INTRA:          67.047
REMARK INTER:                  65.745
REMARK INTRA:                   1.302
REMARK UNBOUND:                 1.302
REMARK SMILES C[C@@H]1[C@H](O)[C@@H](C)/C=C/C=C/C=C/C=C/C=C/C=C/C=C/[C@H](O[C@@H]2O[C@H](C)[C@@H](O)[C@H](N)[C@@H]2O)C[C@@H]2O[C@](O)(C[C@@H](O)C[C@@H](O)[C@H](O)CC[C@@H](O)C[C@@H](O)CC(=O)O[C@H]1C)C[C@H](O)[C@H]2C(=O)O
REMARK SMILES IDX 21 1 33 2 34 3 35 4 36 5 59 6 60 7 62 8 38 9 39 10 41 11
REMARK SMILES IDX 42 12 44 13 46 14 47 15 48 16 50 17 51 18 53 19 54 20 55 21
REMARK SMILES IDX 56 22 57 23 58 24 2 25 1 26 3 27 5 28 6 29 7 30 8 31 9 32
REMARK SMILES IDX 10 33 11 34 12 35 13 36 14 37 15 38 16 39 17 40 18 41 19 42
REMARK SMILES IDX 20 43 22 44 23 45 26 46 25 47 24 48 27 49 29 50 31 51 28 52
REMARK SMILES IDX 30 54 32 57 63 59 64 60 65 61 37 63 61 65 40 67 43 69 45 71
REMARK SMILES IDX 49 73 52 75 4 77
REMARK H PARENT 28 53 30 55 30 56 32 58 65 62 37 64 61 66 40 68 43 70 45 72
REMARK H PARENT 49 74 52 76 4 78
REMARK Flexibility Score: inf
ROOT
ATOM      1  C   UNL     1      26.849   2.491   3.758  1.00  0.00     0.147 C 
ATOM      2  C   UNL     1      25.707   1.420   3.659  1.00  0.00     0.069 C 
ATOM      3  C   UNL     1      25.939  -0.040   4.162  1.00  0.00     0.141 C 
ATOM      4  O   UNL     1      24.769  -0.862   3.906  1.00  0.00    -0.346 OA
ATOM      5  C   UNL     1      23.647  -0.876   4.834  1.00  0.00     0.170 C 
ATOM      6  C   UNL     1      24.116  -0.981   6.323  1.00  0.00     0.098 C 
ATOM      7  C   UNL     1      25.313  -0.055   6.661  1.00  0.00     0.136 C 
ATOM      8  C   UNL     1      26.469  -0.232   5.629  1.00  0.00     0.157 C 
ATOM      9  C   UNL     1      22.574   0.249   4.613  1.00  0.00     0.097 C 
ATOM     10  C   UNL     1      22.123   0.524   3.141  1.00  0.00     0.122 C 
ATOM     11  C   UNL     1      21.280   1.834   2.986  1.00  0.00     0.066 C 
ATOM     12  C   UNL     1      22.111   3.152   2.875  1.00  0.00     0.145 C 
ATOM     13  C   UNL     1      21.291   4.476   3.047  1.00  0.00     0.143 C 
ATOM     14  C   UNL     1      20.586   4.711   4.422  1.00  0.00     0.037 C 
ATOM     15  C   UNL     1      21.525   4.703   5.663  1.00  0.00     0.034 C 
ATOM     16  C   UNL     1      20.819   4.756   7.053  1.00  0.00     0.117 C 
ATOM     17  C   UNL     1      20.222   6.143   7.469  1.00  0.00     0.064 C 
ATOM     18  C   UNL     1      19.241   6.106   8.692  1.00  0.00     0.128 C 
ATOM     19  C   UNL     1      18.938   7.486   9.352  1.00  0.00     0.154 C 
ATOM     20  C   UNL     1      18.121   8.402   8.532  1.00  0.00     0.308 C 
ATOM     21  O   UNL     1      18.635   8.951   7.530  1.00  0.00    -0.252 OA
ATOM     22  O   UNL     1      16.816   8.641   8.885  1.00  0.00    -0.462 OA
ATOM     23  C   UNL     1      15.847   9.471   8.210  1.00  0.00     0.178 C 
ATOM     24  C   UNL     1      14.808   8.502   7.579  1.00  0.00     0.053 C 
ATOM     25  C   UNL     1      15.286  10.560   9.203  1.00  0.00     0.056 C 
ATOM     26  C   UNL     1      14.194   9.989  10.158  1.00  0.00     0.014 C 
ATOM     27  C   UNL     1      14.797  11.901   8.525  1.00  0.00     0.127 C 
ATOM     28  C   UNL     1      15.877  13.016   8.257  1.00  0.00     0.038 C 
ATOM     29  C   UNL     1      16.350  13.690   9.586  1.00  0.00     0.015 C 
ATOM     30  C   UNL     1      16.929  12.576   7.328  1.00  0.00    -0.021 C 
ATOM     31  C   UNL     1      18.267  12.639   7.503  1.00  0.00    -0.004 C 
ATOM     32  C   UNL     1      19.160  12.073   6.637  1.00  0.00    -0.000 C 
ATOM     33  C   UNL     1      20.495  12.256   6.691  1.00  0.00    -0.000 C 
ATOM     34  C   UNL     1      21.378  11.528   5.937  1.00  0.00    -0.000 C 
ATOM     35  C   UNL     1      22.716  11.557   6.103  1.00  0.00    -0.000 C 
ATOM     36  C   UNL     1      23.556  10.660   5.503  1.00  0.00    -0.000 C 
ATOM     37  C   UNL     1      24.809  10.422   5.946  1.00  0.00    -0.000 C 
ATOM     38  C   UNL     1      25.638   9.398   5.582  1.00  0.00    -0.000 C 
ATOM     39  C   UNL     1      25.269   8.248   4.978  1.00  0.00    -0.000 C 
ATOM     40  C   UNL     1      26.086   7.158   4.869  1.00  0.00    -0.000 C 
ATOM     41  C   UNL     1      25.666   5.977   4.378  1.00  0.00    -0.000 C 
ATOM     42  C   UNL     1      26.392   4.831   4.450  1.00  0.00    -0.002 C 
ATOM     43  C   UNL     1      26.253   3.816   3.578  1.00  0.00     0.005 C 
ENDROOT
BRANCH   1  44
ATOM     44  O   UNL     1      27.880   2.398   2.747  1.00  0.00    -0.342 OA
BRANCH  44  45
ATOM     45  C   UNL     1      27.518   2.563   1.358  1.00  0.00     0.281 C 
ATOM     46  C   UNL     1      24.117   3.009  -0.160  1.00  0.00     0.041 C 
ATOM     47  C   UNL     1      25.657   2.863  -0.181  1.00  0.00     0.148 C 
ATOM     48  O   UNL     1      26.085   2.623   1.177  1.00  0.00    -0.344 OA
ATOM     49  C   UNL     1      26.148   1.709  -1.109  1.00  0.00     0.162 C 
ATOM     50  C   UNL     1      27.683   1.499  -0.954  1.00  0.00     0.116 C 
ATOM     51  C   UNL     1      28.088   1.369   0.544  1.00  0.00     0.190 C 
BRANCH  49  52
ATOM     52  O   UNL     1      25.824   1.984  -2.472  1.00  0.00    -0.389 OA
ATOM     53  H   UNL     1      24.892   1.808  -2.621  1.00  0.00     0.211 HD
ENDBRANCH  49  52
BRANCH  50  54
ATOM     54  N   UNL     1      28.123   0.319  -1.713  1.00  0.00    -0.323 NA
ATOM     55  H   UNL     1      28.255   0.382  -2.713  1.00  0.00     0.119 HD
ATOM     56  H   UNL     1      28.295  -0.554  -1.236  1.00  0.00     0.119 HD
ENDBRANCH  50  54
BRANCH  51  57
ATOM     57  O   UNL     1      27.599   0.137   1.079  1.00  0.00    -0.386 OA
ATOM     58  H   UNL     1      28.048  -0.052   1.906  1.00  0.00     0.211 HD
ENDBRANCH  51  57
ENDBRANCH  44  45
ENDBRANCH   1  44
BRANCH   8  59
ATOM     59  C   UNL     1      27.174  -1.528   5.841  1.00  0.00     0.311 C 
ATOM     60  O   UNL     1      27.702  -2.123   4.874  1.00  0.00    -0.252 OA
BRANCH  59  61
ATOM     61  O   UNL     1      27.276  -2.114   7.057  1.00  0.00    -0.481 OA
ATOM     62  H   UNL     1      27.566  -1.465   7.703  1.00  0.00     0.296 HD
ENDBRANCH  59  61
ENDBRANCH   8  59
BRANCH   5  63
ATOM     63  O   UNL     1      22.995  -2.121   4.561  1.00  0.00    -0.365 OA
ATOM     64  H   UNL     1      23.218  -2.410   3.674  1.00  0.00     0.214 HD
ENDBRANCH   5  63
BRANCH   7  65
ATOM     65  O   UNL     1      24.891   1.304   6.740  1.00  0.00    -0.392 OA
ATOM     66  H   UNL     1      25.500   1.859   6.246  1.00  0.00     0.210 HD
ENDBRANCH   7  65
BRANCH  10  67
ATOM     67  O   UNL     1      21.317  -0.560   2.673  1.00  0.00    -0.393 OA
ATOM     68  H   UNL     1      20.544  -0.211   2.222  1.00  0.00     0.210 HD
ENDBRANCH  10  67
BRANCH  12  69
ATOM     69  O   UNL     1      22.722   3.184   1.585  1.00  0.00    -0.390 OA
ATOM     70  H   UNL     1      22.068   2.970   0.915  1.00  0.00     0.211 HD
ENDBRANCH  12  69
BRANCH  13  71
ATOM     71  O   UNL     1      22.140   5.601   2.798  1.00  0.00    -0.390 OA
ATOM     72  H   UNL     1      22.254   5.712   1.851  1.00  0.00     0.211 HD
ENDBRANCH  13  71
BRANCH  16  73
ATOM     73  O   UNL     1      21.810   4.358   8.004  1.00  0.00    -0.393 OA
ATOM     74  H   UNL     1      21.615   3.471   8.316  1.00  0.00     0.210 HD
ENDBRANCH  16  73
BRANCH  18  75
ATOM     75  O   UNL     1      19.734   5.271   9.737  1.00  0.00    -0.392 OA
ATOM     76  H   UNL     1      20.689   5.358   9.794  1.00  0.00     0.210 HD
ENDBRANCH  18  75
BRANCH  27  77
ATOM     77  O   UNL     1      14.074  11.637   7.322  1.00  0.00    -0.392 OA
ATOM     78  H   UNL     1      14.689  11.561   6.589  1.00  0.00     0.210 HD
ENDBRANCH  27  77
TORSDOF 15
ENDMDL
MODEL 2
REMARK VINA RESULT:    43.770      1.688      2.222
REMARK INTER + INTRA:          68.101
REMARK INTER:                  66.168
REMARK INTRA:                   1.933
REMARK UNBOUND:                 1.302
REMARK SMILES C[C@@H]1[C@H](O)[C@@H](C)/C=C/C=C/C=C/C=C/C=C/C=C/C=C/[C@H](O[C@@H]2O[C@H](C)[C@@H](O)[C@H](N)[C@@H]2O)C[C@@H]2O[C@](O)(C[C@@H](O)C[C@@H](O)[C@H](O)CC[C@@H](O)C[C@@H](O)CC(=O)O[C@H]1C)C[C@H](O)[C@H]2C(=O)O
REMARK SMILES IDX 21 1 33 2 34 3 35 4 36 5 59 6 60 7 62 8 38 9 39 10 41 11
REMARK SMILES IDX 42 12 44 13 46 14 47 15 48 16 50 17 51 18 53 19 54 20 55 21
REMARK SMILES IDX 56 22 57 23 58 24 2 25 1 26 3 27 5 28 6 29 7 30 8 31 9 32
REMARK SMILES IDX 10 33 11 34 12 35 13 36 14 37 15 38 16 39 17 40 18 41 19 42
REMARK SMILES IDX 20 43 22 44 23 45 26 46 25 47 24 48 27 49 29 50 31 51 28 52
REMARK SMILES IDX 30 54 32 57 63 59 64 60 65 61 37 63 61 65 40 67 43 69 45 71
REMARK SMILES IDX 49 73 52 75 4 77
REMARK H PARENT 28 53 30 55 30 56 32 58 65 62 37 64 61 66 40 68 43 70 45 72
REMARK H PARENT 49 74 52 76 4 78
REMARK Flexibility Score: inf
ROOT
ATOM      1  C   UNL     1      26.584   2.779   1.185  1.00  0.00     0.147 C 
ATOM      2  C   UNL     1      25.546   1.615   1.354  1.00  0.00     0.069 C 
ATOM      3  C   UNL     1      26.013   0.188   1.783  1.00  0.00     0.141 C 
ATOM      4  O   UNL     1      24.890  -0.733   1.808  1.00  0.00    -0.346 OA
ATOM      5  C   UNL     1      24.023  -0.826   2.973  1.00  0.00     0.170 C 
ATOM      6  C   UNL     1      24.836  -0.866   4.309  1.00  0.00     0.098 C 
ATOM      7  C   UNL     1      25.996   0.162   4.359  1.00  0.00     0.136 C 
ATOM      8  C   UNL     1      26.887   0.066   3.084  1.00  0.00     0.157 C 
ATOM      9  C   UNL     1      22.836   0.202   3.015  1.00  0.00     0.097 C 
ATOM     10  C   UNL     1      22.030   0.414   1.692  1.00  0.00     0.122 C 
ATOM     11  C   UNL     1      21.066   1.646   1.744  1.00  0.00     0.066 C 
ATOM     12  C   UNL     1      21.733   3.027   1.445  1.00  0.00     0.145 C 
ATOM     13  C   UNL     1      20.866   4.280   1.810  1.00  0.00     0.143 C 
ATOM     14  C   UNL     1      20.487   4.479   3.314  1.00  0.00     0.037 C 
ATOM     15  C   UNL     1      21.688   4.569   4.298  1.00  0.00     0.034 C 
ATOM     16  C   UNL     1      21.326   4.587   5.816  1.00  0.00     0.117 C 
ATOM     17  C   UNL     1      20.728   5.926   6.365  1.00  0.00     0.064 C 
ATOM     18  C   UNL     1      20.069   5.827   7.785  1.00  0.00     0.128 C 
ATOM     19  C   UNL     1      19.813   7.188   8.503  1.00  0.00     0.154 C 
ATOM     20  C   UNL     1      18.751   8.019   7.902  1.00  0.00     0.308 C 
ATOM     21  O   UNL     1      18.966   8.592   6.808  1.00  0.00    -0.252 OA
ATOM     22  O   UNL     1      17.551   8.154   8.553  1.00  0.00    -0.462 OA
ATOM     23  C   UNL     1      16.382   8.888   8.127  1.00  0.00     0.178 C 
ATOM     24  C   UNL     1      15.311   7.825   7.755  1.00  0.00     0.053 C 
ATOM     25  C   UNL     1      15.981   9.944   9.229  1.00  0.00     0.056 C 
ATOM     26  C   UNL     1      15.196   9.299  10.412  1.00  0.00     0.014 C 
ATOM     27  C   UNL     1      15.233  11.227   8.689  1.00  0.00     0.127 C 
ATOM     28  C   UNL     1      16.121  12.424   8.179  1.00  0.00     0.038 C 
ATOM     29  C   UNL     1      16.834  13.157   9.361  1.00  0.00     0.015 C 
ATOM     30  C   UNL     1      16.959  12.058   7.027  1.00  0.00    -0.021 C 
ATOM     31  C   UNL     1      18.290  12.235   6.882  1.00  0.00    -0.004 C 
ATOM     32  C   UNL     1      19.000  11.731   5.827  1.00  0.00    -0.000 C 
ATOM     33  C   UNL     1      20.289  12.026   5.566  1.00  0.00    -0.000 C 
ATOM     34  C   UNL     1      21.029  11.362   4.623  1.00  0.00    -0.000 C 
ATOM     35  C   UNL     1      22.361  11.506   4.469  1.00  0.00    -0.000 C 
ATOM     36  C   UNL     1      23.110  10.672   3.685  1.00  0.00    -0.000 C 
ATOM     37  C   UNL     1      24.447  10.547   3.820  1.00  0.00    -0.000 C 
ATOM     38  C   UNL     1      25.252   9.590   3.267  1.00  0.00    -0.000 C 
ATOM     39  C   UNL     1      24.851   8.403   2.763  1.00  0.00    -0.000 C 
ATOM     40  C   UNL     1      25.708   7.384   2.461  1.00  0.00    -0.000 C 
ATOM     41  C   UNL     1      25.287   6.163   2.078  1.00  0.00    -0.000 C 
ATOM     42  C   UNL     1      26.105   5.083   1.973  1.00  0.00    -0.002 C 
ATOM     43  C   UNL     1      25.851   4.047   1.155  1.00  0.00     0.005 C 
ENDROOT
BRANCH   1  44
ATOM     44  O   UNL     1      27.353   2.756  -0.041  1.00  0.00    -0.342 OA
BRANCH  44  45
ATOM     45  C   UNL     1      27.170   1.659  -0.964  1.00  0.00     0.281 C 
ATOM     46  C   UNL     1      28.124   1.433  -4.584  1.00  0.00     0.041 C 
ATOM     47  C   UNL     1      27.516   0.922  -3.257  1.00  0.00     0.148 C 
ATOM     48  O   UNL     1      27.602   2.000  -2.301  1.00  0.00    -0.344 OA
ATOM     49  C   UNL     1      26.036   0.453  -3.403  1.00  0.00     0.162 C 
ATOM     50  C   UNL     1      25.429   0.116  -2.010  1.00  0.00     0.116 C 
ATOM     51  C   UNL     1      25.665   1.274  -0.996  1.00  0.00     0.190 C 
BRANCH  49  52
ATOM     52  O   UNL     1      25.948  -0.682  -4.265  1.00  0.00    -0.389 OA
ATOM     53  H   UNL     1      26.105  -0.408  -5.172  1.00  0.00     0.211 HD
ENDBRANCH  49  52
BRANCH  50  54
ATOM     54  N   UNL     1      23.994  -0.183  -2.128  1.00  0.00    -0.323 NA
ATOM     55  H   UNL     1      23.619  -0.518  -3.005  1.00  0.00     0.119 HD
ATOM     56  H   UNL     1      23.383  -0.053  -1.334  1.00  0.00     0.119 HD
ENDBRANCH  50  54
BRANCH  51  57
ATOM     57  O   UNL     1      24.878   2.411  -1.357  1.00  0.00    -0.386 OA
ATOM     58  H   UNL     1      25.007   3.107  -0.709  1.00  0.00     0.211 HD
ENDBRANCH  51  57
ENDBRANCH  44  45
ENDBRANCH   1  44
BRANCH   8  59
ATOM     59  C   UNL     1      27.730  -1.164   3.119  1.00  0.00     0.311 C 
ATOM     60  O   UNL     1      28.118  -1.692   2.052  1.00  0.00    -0.252 OA
BRANCH  59  61
ATOM     61  O   UNL     1      28.109  -1.757   4.275  1.00  0.00    -0.481 OA
ATOM     62  H   UNL     1      27.700  -1.305   5.017  1.00  0.00     0.296 HD
ENDBRANCH  59  61
ENDBRANCH   8  59
BRANCH   5  63
ATOM     63  O   UNL     1      23.433  -2.125   2.858  1.00  0.00    -0.365 OA
ATOM     64  H   UNL     1      23.040  -2.221   1.987  1.00  0.00     0.214 HD
ENDBRANCH   5  63
BRANCH   7  65
ATOM     65  O   UNL     1      25.490   1.483   4.540  1.00  0.00    -0.392 OA
ATOM     66  H   UNL     1      26.033   2.105   4.051  1.00  0.00     0.210 HD
ENDBRANCH   7  65
BRANCH  10  67
ATOM     67  O   UNL     1      21.232  -0.741   1.423  1.00  0.00    -0.393 OA
ATOM     68  H   UNL     1      21.121  -0.839   0.474  1.00  0.00     0.210 HD
ENDBRANCH  10  67
BRANCH  12  69
ATOM     69  O   UNL     1      22.018   3.089   0.047  1.00  0.00    -0.390 OA
ATOM     70  H   UNL     1      21.685   3.915  -0.311  1.00  0.00     0.211 HD
ENDBRANCH  12  69
BRANCH  13  71
ATOM     71  O   UNL     1      21.534   5.468   1.372  1.00  0.00    -0.390 OA
ATOM     72  H   UNL     1      20.885   6.105   1.066  1.00  0.00     0.211 HD
ENDBRANCH  13  71
BRANCH  16  73
ATOM     73  O   UNL     1      22.544   4.289   6.505  1.00  0.00    -0.393 OA
ATOM     74  H   UNL     1      22.525   3.377   6.806  1.00  0.00     0.210 HD
ENDBRANCH  16  73
BRANCH  18  75
ATOM     75  O   UNL     1      20.863   5.054   8.682  1.00  0.00    -0.392 OA
ATOM     76  H   UNL     1      21.036   4.192   8.294  1.00  0.00     0.210 HD
ENDBRANCH  18  75
BRANCH  27  77
ATOM     77  O   UNL     1      14.273  10.884   7.690  1.00  0.00    -0.392 OA
ATOM     78  H   UNL     1      14.372   9.958   7.455  1.00  0.00     0.210 HD
ENDBRANCH  27  77
TORSDOF 15
ENDMDL
